
     RDKit          3D

 35 38  0  0  0  0  0  0  0  0999 V2000
   27.4156   38.0029   93.2181 N   0  0  0  0  0  0  0  0  0  0  0  0
   27.8271   38.7048   94.4427 C   0  0  2  0  0  0  0  0  0  0  0  0
   26.6620   38.7974   95.4332 C   0  0  0  0  0  0  0  0  0  0  0  0
   25.5043   38.7569   95.0199 O   0  0  0  0  0  0  0  0  0  0  0  0
   26.9731   38.9358   96.7205 N   0  0  0  0  0  0  0  0  0  0  0  0
   24.6065   38.7285   98.0099 O   0  0  0  0  0  0  0  0  0  0  0  0
   25.5734   41.0581   97.4262 O   0  0  0  0  0  0  0  0  0  0  0  0
   28.2658   40.1320   94.1111 C   0  0  0  0  0  0  0  0  0  0  0  0
   25.7726   39.5839   97.6199 S   0  0  2  0  0  0  0  0  0  0  0  0
   29.3791   40.2025   93.0620 C   0  0  0  0  0  0  0  0  0  0  0  0
   29.2199   41.0629   91.9812 C   0  0  0  0  0  0  0  0  0  0  0  0
   30.5619   39.4873   93.2164 C   0  0  0  0  0  0  0  0  0  0  0  0
   30.2481   41.2200   91.0570 C   0  0  0  0  0  0  0  0  0  0  0  0
   31.5923   39.6476   92.2966 C   0  0  0  0  0  0  0  0  0  0  0  0
   31.4350   40.5152   91.2202 C   0  0  0  0  0  0  0  0  0  0  0  0
   32.4436   40.6985   90.3259 O   0  0  0  0  0  0  0  0  0  0  0  0
   26.9695   38.4283   99.3883 C   0  0  0  0  0  0  0  0  0  0  0  0
   26.4621   39.6499   98.8662 O   0  0  0  0  0  0  0  0  0  0  0  0
   28.4904   38.4611   99.5338 C   0  0  1  0  0  0  0  0  0  0  0  0
   28.7555   38.2267  100.9255 O   0  0  0  0  0  0  0  0  0  0  0  0
   28.9265   37.1570   98.8661 C   0  0  1  0  0  0  0  0  0  0  0  0
   30.3409   36.9843   98.9871 O   0  0  0  0  0  0  0  0  0  0  0  0
   28.1544   36.2209   99.7946 C   0  0  1  0  0  0  0  0  0  0  0  0
   28.6592   34.8865   99.7027 O   0  0  0  0  0  0  0  0  0  0  0  0
   28.4896   36.8323  101.1578 C   0  0  2  0  0  0  0  0  0  0  0  0
   26.8421   34.4500  105.4136 N   0  0  0  0  0  0  0  0  0  0  0  0
   28.0607   34.4945  104.9036 C   0  0  0  0  0  0  0  0  0  0  0  0
   28.3356   35.1846  103.8107 N   0  0  0  0  0  0  0  0  0  0  0  0
   27.3701   35.8706  103.1807 C   0  0  0  0  0  0  0  0  0  0  0  0
   26.0799   35.8523  103.6903 C   0  0  0  0  0  0  0  0  0  0  0  0
   25.8289   35.1127  104.8396 C   0  0  0  0  0  0  0  0  0  0  0  0
   24.6034   35.0501  105.3531 N   0  0  0  0  0  0  0  0  0  0  0  0
   25.3216   36.5827  102.8765 N   0  0  0  0  0  0  0  0  0  0  0  0
   26.0998   37.0383  101.8981 C   0  0  0  0  0  0  0  0  0  0  0  0
   27.3480   36.6054  102.0738 N   0  0  0  0  0  0  0  0  0  0  0  0
  2  1  1  6
  2  3  1  0
  2  8  1  0
  3  4  1  0
  3  5  2  3
  5  9  1  0
  6  9  2  0
  7  9  2  0
  8 10  1  0
  9 18  1  1
 10 11  2  0
 10 12  1  0
 11 13  1  0
 12 14  2  0
 13 15  2  0
 14 15  1  0
 15 16  1  0
 19 17  1  1
 17 18  1  0
 19 20  1  0
 19 21  1  0
 20 25  1  0
 21 22  1  1
 21 23  1  0
 23 24  1  1
 23 25  1  0
 25 35  1  1
 26 31  2  0
 26 27  1  0
 27 28  2  0
 28 29  1  0
 29 30  2  0
 29 35  1  0
 30 31  1  0
 30 33  1  0
 31 32  1  0
 33 34  2  0
 34 35  1  0
M  END
$$$$
