
     RDKit          3D

 31 33  0  0  0  0  0  0  0  0999 V2000
   25.3803   40.1122   98.9058 P   0  0  0  0  0  0  0  0  0  0  0  0
   23.2891   37.9790   98.8069 P   0  0  0  0  0  0  0  0  0  0  0  0
   21.8976   37.9725  101.3010 P   0  0  0  0  0  0  0  0  0  0  0  0
   27.8847   39.6078   99.5392 C   0  0  0  0  0  0  0  0  0  0  0  0
   26.5037   39.2287   99.5944 O   0  0  0  0  0  0  0  0  0  0  0  0
   28.7452   38.4000   99.8067 C   0  0  1  0  0  0  0  0  0  0  0  0
   28.5765   37.9866  101.1808 O   0  0  0  0  0  0  0  0  0  0  0  0
   28.3319   37.1916   98.9887 C   0  0  1  0  0  0  0  0  0  0  0  0
   29.0467   37.1870   97.7544 O   0  0  0  0  0  0  0  0  0  0  0  0
   28.7598   36.0133   99.8435 C   0  0  1  0  0  0  0  0  0  0  0  0
   30.1090   35.7069   99.5794 O   0  0  0  0  0  0  0  0  0  0  0  0
   28.6007   36.5766  101.2585 C   0  0  2  0  0  0  0  0  0  0  0  0
   26.8332   33.3814  104.8628 N   0  0  0  0  0  0  0  0  0  0  0  0
   26.0199   40.8767   97.7815 O   0  0  0  0  0  0  0  0  0  0  0  0
   23.9359   36.6117   98.7646 O   0  0  0  0  0  0  0  0  0  0  0  0
   21.8199   39.1501  102.2503 O   0  0  0  0  0  0  0  0  0  0  0  0
   28.0488   33.5682  104.3382 C   0  0  0  0  0  0  0  0  0  0  0  0
   24.6614   40.8584   99.9891 O   0  0  0  0  0  0  0  0  0  0  0  0
   21.9298   38.1808   98.1711 O   0  0  0  0  0  0  0  0  0  0  0  0
   20.7793   37.8354  100.2802 O   0  0  0  0  0  0  0  0  0  0  0  0
   28.4424   34.4293  103.4028 N   0  0  0  0  0  0  0  0  0  0  0  0
   24.3326   39.0787   98.2448 O   0  0  0  0  0  0  0  0  0  0  0  0
   23.0881   38.4071  100.3290 O   0  0  0  0  0  0  0  0  0  0  0  0
   22.4688   36.6920  101.8591 O   0  0  0  0  0  0  0  0  0  0  0  0
   27.4076   35.1668  102.9751 C   0  0  0  0  0  0  0  0  0  0  0  0
   26.1009   35.0979  103.4176 C   0  0  0  0  0  0  0  0  0  0  0  0
   25.8181   34.1507  104.4237 C   0  0  0  0  0  0  0  0  0  0  0  0
   24.6094   33.9761  104.9669 N   0  0  0  0  0  0  0  0  0  0  0  0
   25.3054   36.0138  102.7396 N   0  0  0  0  0  0  0  0  0  0  0  0
   26.1362   36.6037  101.9154 C   0  0  0  0  0  0  0  0  0  0  0  0
   27.4238   36.1392  102.0058 N   0  0  0  0  0  0  0  0  0  0  0  0
  1  5  1  0
  1 14  1  0
  1 18  2  0
  1 22  1  0
  2 15  1  0
  2 19  2  0
  2 22  1  0
  2 23  1  0
  3 16  1  0
  3 20  1  0
  3 23  1  0
  3 24  2  0
  6  4  1  6
  4  5  1  0
  6  7  1  0
  6  8  1  0
  7 12  1  0
  8  9  1  6
  8 10  1  0
 10 11  1  6
 10 12  1  0
 12 31  1  6
 13 17  2  0
 13 27  1  0
 17 21  1  0
 21 25  2  0
 25 26  1  0
 25 31  1  0
 26 27  2  0
 26 29  1  0
 27 28  1  0
 29 30  2  0
 30 31  1  0
M  END
$$$$
