
     RDKit          3D

 31 33  0  0  0  0  0  0  0  0999 V2000
   25.2386   39.9473   98.9824 P   0  0  0  0  0  0  0  0  0  0  0  0
   23.1391   39.2665  100.9798 P   0  0  0  0  0  0  0  0  0  0  0  0
   20.6859   40.3551   99.8052 P   0  0  0  0  0  0  0  0  0  0  0  0
   27.8770   39.7382   99.4852 C   0  0  0  0  0  0  0  0  0  0  0  0
   26.6080   39.1908   98.9679 O   0  0  0  0  0  0  0  0  0  0  0  0
   28.7749   38.6326   99.8479 C   0  0  1  0  0  0  0  0  0  0  0  0
   28.3846   37.9691  101.0684 O   0  0  0  0  0  0  0  0  0  0  0  0
   29.0274   37.4826   98.8461 C   0  0  1  0  0  0  0  0  0  0  0  0
   30.4148   37.1435   98.8152 O   0  0  0  0  0  0  0  0  0  0  0  0
   28.1471   36.4200   99.4928 C   0  0  1  0  0  0  0  0  0  0  0  0
   28.2531   35.0846   99.0570 O   0  0  0  0  0  0  0  0  0  0  0  0
   28.4610   36.5887  100.9880 C   0  0  2  0  0  0  0  0  0  0  0  0
   27.1132   33.4779  105.0415 N   0  0  0  0  0  0  0  0  0  0  0  0
   24.3356   39.2464   98.0481 O   0  0  0  0  0  0  0  0  0  0  0  0
   22.8728   37.8678  100.5718 O   0  0  0  0  0  0  0  0  0  0  0  0
   20.7121   39.5629   98.5478 O   0  0  0  0  0  0  0  0  0  0  0  0
   28.3948   33.6540  104.4744 C   0  0  0  0  0  0  0  0  0  0  0  0
   25.4761   41.3708   98.7637 O   0  0  0  0  0  0  0  0  0  0  0  0
   23.1140   39.3161  102.4500 O   0  0  0  0  0  0  0  0  0  0  0  0
   20.2684   41.7277   99.4693 O   0  0  0  0  0  0  0  0  0  0  0  0
   28.5575   34.5121  103.3962 N   0  0  0  0  0  0  0  0  0  0  0  0
   24.6041   39.7065  100.4586 O   0  0  0  0  0  0  0  0  0  0  0  0
   22.1576   40.3739  100.4372 O   0  0  0  0  0  0  0  0  0  0  0  0
   19.7762   39.7312  100.8084 O   0  0  0  0  0  0  0  0  0  0  0  0
   27.4536   35.1825  102.9140 C   0  0  0  0  0  0  0  0  0  0  0  0
   26.1520   35.0285  103.4599 C   0  0  0  0  0  0  0  0  0  0  0  0
   25.9646   34.1281  104.5857 C   0  0  0  0  0  0  0  0  0  0  0  0
   24.8016   33.9037  105.1881 N   0  0  0  0  0  0  0  0  0  0  0  0
   25.2445   35.8042  102.7805 N   0  0  0  0  0  0  0  0  0  0  0  0
   26.0007   36.4328  101.8336 C   0  0  0  0  0  0  0  0  0  0  0  0
   27.3422   36.0720  101.8917 N   0  0  0  0  0  0  0  0  0  0  0  0
  1  5  1  0
  1 14  1  0
  1 18  2  0
  1 22  1  0
  2 15  1  0
  2 19  2  0
  2 22  1  0
  2 23  1  0
  3 16  1  0
  3 20  1  0
  3 23  1  0
  3 24  2  0
  6  4  1  6
  4  5  1  0
  6  7  1  0
  6  8  1  0
  7 12  1  0
  8  9  1  1
  8 10  1  0
 10 11  1  6
 10 12  1  0
 12 31  1  1
 13 17  2  0
 13 27  1  0
 17 21  1  0
 21 25  2  0
 25 26  1  0
 25 31  1  0
 26 27  2  0
 26 29  1  0
 27 28  1  0
 29 30  2  0
 30 31  1  0
M  END
$$$$
