
     RDKit          3D

 31 33  0  0  0  0  0  0  0  0999 V2000
   25.2534   40.0554   99.1885 P   0  0  0  0  0  0  0  0  0  0  0  0
   23.1694   39.3419  101.1688 P   0  0  0  0  0  0  0  0  0  0  0  0
   20.7061   40.4359  100.0212 P   0  0  0  0  0  0  0  0  0  0  0  0
   27.8732   39.7125   99.4807 C   0  0  0  0  0  0  0  0  0  0  0  0
   26.5418   39.1782   99.1477 O   0  0  0  0  0  0  0  0  0  0  0  0
   28.7786   38.6184   99.8546 C   0  0  1  0  0  0  0  0  0  0  0  0
   28.3836   37.9783  101.0805 O   0  0  0  0  0  0  0  0  0  0  0  0
   29.0255   37.4558   98.8636 C   0  0  1  0  0  0  0  0  0  0  0  0
   30.3979   37.0698   98.8775 O   0  0  0  0  0  0  0  0  0  0  0  0
   28.1194   36.4202   99.5061 C   0  0  1  0  0  0  0  0  0  0  0  0
   28.2442   35.0791   99.1064 O   0  0  0  0  0  0  0  0  0  0  0  0
   28.4420   36.6037  100.9944 C   0  0  2  0  0  0  0  0  0  0  0  0
   27.1348   33.4724  104.9967 N   0  0  0  0  0  0  0  0  0  0  0  0
   24.2959   39.5009   98.2224 O   0  0  0  0  0  0  0  0  0  0  0  0
   22.8991   37.9523  100.7251 O   0  0  0  0  0  0  0  0  0  0  0  0
   20.7411   39.6202   98.7832 O   0  0  0  0  0  0  0  0  0  0  0  0
   28.4158   33.6703  104.4404 C   0  0  0  0  0  0  0  0  0  0  0  0
   25.6259   41.4776   99.0419 O   0  0  0  0  0  0  0  0  0  0  0  0
   23.1797   39.3561  102.6297 O   0  0  0  0  0  0  0  0  0  0  0  0
   20.2899   41.8084   99.6809 O   0  0  0  0  0  0  0  0  0  0  0  0
   28.5680   34.5480  103.3752 N   0  0  0  0  0  0  0  0  0  0  0  0
   24.6294   39.8039  100.6566 O   0  0  0  0  0  0  0  0  0  0  0  0
   22.1817   40.4645  100.6422 O   0  0  0  0  0  0  0  0  0  0  0  0
   19.8145   39.8142  101.0200 O   0  0  0  0  0  0  0  0  0  0  0  0
   27.4589   35.2036  102.9016 C   0  0  0  0  0  0  0  0  0  0  0  0
   26.1608   35.0304  103.4413 C   0  0  0  0  0  0  0  0  0  0  0  0
   25.9833   34.1145  104.5476 C   0  0  0  0  0  0  0  0  0  0  0  0
   24.8236   33.8713  105.1395 N   0  0  0  0  0  0  0  0  0  0  0  0
   25.2447   35.8078  102.7772 N   0  0  0  0  0  0  0  0  0  0  0  0
   25.9937   36.4478  101.8380 C   0  0  0  0  0  0  0  0  0  0  0  0
   27.3350   36.0928  101.8919 N   0  0  0  0  0  0  0  0  0  0  0  0
  1  5  1  0
  1 14  1  0
  1 18  2  0
  1 22  1  0
  2 15  1  0
  2 19  2  0
  2 22  1  0
  2 23  1  0
  3 16  1  0
  3 20  1  0
  3 23  1  0
  3 24  2  0
  6  4  1  6
  4  5  1  0
  6  7  1  0
  6  8  1  0
  7 12  1  0
  8  9  1  1
  8 10  1  0
 10 11  1  6
 10 12  1  0
 12 31  1  1
 13 17  2  0
 13 27  1  0
 17 21  1  0
 21 25  2  0
 25 26  1  0
 25 31  1  0
 26 27  2  0
 26 29  1  0
 27 28  1  0
 29 30  2  0
 30 31  1  0
M  END
$$$$
