
     RDKit          3D

 31 33  0  0  0  0  0  0  0  0999 V2000
   24.7148   39.5927   98.8761 P   0  0  0  0  0  0  0  0  0  0  0  0
   23.0979   37.1002   99.0086 P   0  0  0  0  0  0  0  0  0  0  0  0
   21.2681   38.7513  100.5231 P   0  0  0  0  0  0  0  0  0  0  0  0
   27.1915   38.7319   99.2967 C   0  0  0  0  0  0  0  0  0  0  0  0
   26.0857   39.3360   99.3339 O   0  0  0  0  0  0  0  0  0  0  0  0
   28.5732   38.4728   99.7284 C   0  0  1  0  0  0  0  0  0  0  0  0
   28.4342   38.0469  101.1260 O   0  0  0  0  0  0  0  0  0  0  0  0
   28.7888   37.3417   98.7889 C   0  0  1  0  0  0  0  0  0  0  0  0
   30.0385   37.3644   98.1083 O   0  0  0  0  0  0  0  0  0  0  0  0
   28.4845   36.0839   99.6757 C   0  0  1  0  0  0  0  0  0  0  0  0
   29.4823   35.0808   99.4908 O   0  0  0  0  0  0  0  0  0  0  0  0
   28.4310   36.5835  101.1725 C   0  0  2  0  0  0  0  0  0  0  0  0
   27.0074   33.3446  104.8702 N   0  0  0  0  0  0  0  0  0  0  0  0
   24.7569   40.5710   99.9602 O   0  0  0  0  0  0  0  0  0  0  0  0
   23.5411   36.8482   97.6513 O   0  0  0  0  0  0  0  0  0  0  0  0
   20.4651   39.9541  100.1845 O   0  0  0  0  0  0  0  0  0  0  0  0
   28.2060   33.5117  104.2420 C   0  0  0  0  0  0  0  0  0  0  0  0
   24.9021   39.9882   97.4732 O   0  0  0  0  0  0  0  0  0  0  0  0
   23.3944   36.1833  100.1097 O   0  0  0  0  0  0  0  0  0  0  0  0
   22.2945   38.9236  101.5856 O   0  0  0  0  0  0  0  0  0  0  0  0
   28.4755   34.4023  103.2670 N   0  0  0  0  0  0  0  0  0  0  0  0
   24.4176   38.0972   99.1755 O   0  0  0  0  0  0  0  0  0  0  0  0
   22.1036   38.2966   99.2570 O   0  0  0  0  0  0  0  0  0  0  0  0
   20.3578   37.6318  100.8132 O   0  0  0  0  0  0  0  0  0  0  0  0
   27.3342   35.2057  102.9444 C   0  0  0  0  0  0  0  0  0  0  0  0
   26.0787   35.1278  103.5083 C   0  0  0  0  0  0  0  0  0  0  0  0
   25.9199   34.1558  104.5135 C   0  0  0  0  0  0  0  0  0  0  0  0
   24.7476   33.9992  105.1061 N   0  0  0  0  0  0  0  0  0  0  0  0
   25.2137   36.0564  102.9592 N   0  0  0  0  0  0  0  0  0  0  0  0
   25.9522   36.6553  102.0817 C   0  0  0  0  0  0  0  0  0  0  0  0
   27.2657   36.1794  102.0161 N   0  0  0  0  0  0  0  0  0  0  0  0
  1  5  1  0
  1 14  1  0
  1 18  2  0
  1 22  1  0
  2 15  1  0
  2 19  2  0
  2 22  1  0
  2 23  1  0
  3 16  1  0
  3 20  1  0
  3 23  1  0
  3 24  2  0
  6  4  1  6
  4  5  1  0
  6  7  1  0
  6  8  1  0
  7 12  1  0
  8  9  1  1
  8 10  1  0
 10 11  1  1
 10 12  1  0
 12 31  1  6
 13 17  2  0
 13 27  1  0
 17 21  1  0
 21 25  2  0
 25 26  1  0
 25 31  1  0
 26 27  2  0
 26 29  1  0
 27 28  1  0
 29 30  2  0
 30 31  1  0
M  END
$$$$
