
     RDKit          3D

 35 38  0  0  0  0  0  0  0  0999 V2000
   28.7611   38.7347   92.5621 N   0  0  0  0  0  0  0  0  0  0  0  0
   29.1096   39.0439   93.9569 C   0  0  2  0  0  0  0  0  0  0  0  0
   27.8502   38.9721   94.8167 C   0  0  0  0  0  0  0  0  0  0  0  0
   26.7922   38.5445   94.3522 O   0  0  0  0  0  0  0  0  0  0  0  0
   28.0011   39.4218   96.0610 N   0  0  0  0  0  0  0  0  0  0  0  0
   26.2870   38.0335   97.3774 O   0  0  0  0  0  0  0  0  0  0  0  0
   25.6538   40.2674   96.5883 O   0  0  0  0  0  0  0  0  0  0  0  0
   29.6922   40.4576   94.0487 C   0  0  0  0  0  0  0  0  0  0  0  0
   26.7750   39.4321   97.1324 S   0  0  2  0  0  0  0  0  0  0  0  0
   31.0218   40.5940   93.3043 C   0  0  0  0  0  0  0  0  0  0  0  0
   31.1072   41.4017   92.1755 C   0  0  0  0  0  0  0  0  0  0  0  0
   32.1515   39.9248   93.7680 C   0  0  0  0  0  0  0  0  0  0  0  0
   32.3224   41.5433   91.5110 C   0  0  0  0  0  0  0  0  0  0  0  0
   33.3668   40.0676   93.1044 C   0  0  0  0  0  0  0  0  0  0  0  0
   33.4531   40.8775   91.9774 C   0  0  0  0  0  0  0  0  0  0  0  0
   34.6420   41.0144   91.3303 O   0  0  0  0  0  0  0  0  0  0  0  0
   27.3046   39.2918   99.6390 C   0  0  0  0  0  0  0  0  0  0  0  0
   27.2659   40.0337   98.4170 O   0  0  0  0  0  0  0  0  0  0  0  0
   28.6497   38.5982   99.8753 C   0  0  1  0  0  0  0  0  0  0  0  0
   28.6228   37.9663  101.1684 O   0  0  0  0  0  0  0  0  0  0  0  0
   28.9122   37.4604   98.8858 C   0  0  1  0  0  0  0  0  0  0  0  0
   30.2864   37.0691   98.9369 O   0  0  0  0  0  0  0  0  0  0  0  0
   28.0400   36.3716   99.5079 C   0  0  1  0  0  0  0  0  0  0  0  0
   28.5005   35.0949   99.0580 O   0  0  0  0  0  0  0  0  0  0  0  0
   28.3910   36.5570  100.9858 C   0  0  2  0  0  0  0  0  0  0  0  0
   27.1409   33.5373  104.9790 N   0  0  0  0  0  0  0  0  0  0  0  0
   28.3254   33.7121  104.4172 C   0  0  0  0  0  0  0  0  0  0  0  0
   28.4771   34.5230  103.3832 N   0  0  0  0  0  0  0  0  0  0  0  0
   27.4355   35.1963  102.8709 C   0  0  0  0  0  0  0  0  0  0  0  0
   26.1776   35.0354  103.4384 C   0  0  0  0  0  0  0  0  0  0  0  0
   26.0519   34.1723  104.5226 C   0  0  0  0  0  0  0  0  0  0  0  0
   24.8698   33.9815  105.1014 N   0  0  0  0  0  0  0  0  0  0  0  0
   25.3353   35.8118  102.7672 N   0  0  0  0  0  0  0  0  0  0  0  0
   26.0306   36.4396  101.8229 C   0  0  0  0  0  0  0  0  0  0  0  0
   27.3092   36.0679  101.8734 N   0  0  0  0  0  0  0  0  0  0  0  0
  2  1  1  6
  2  3  1  0
  2  8  1  0
  3  4  1  0
  3  5  2  3
  5  9  1  0
  6  9  2  0
  7  9  2  0
  8 10  1  0
  9 18  1  1
 10 11  2  0
 10 12  1  0
 11 13  1  0
 12 14  2  0
 13 15  2  0
 14 15  1  0
 15 16  1  0
 19 17  1  6
 17 18  1  0
 19 20  1  0
 19 21  1  0
 20 25  1  0
 21 22  1  1
 21 23  1  0
 23 24  1  6
 23 25  1  0
 25 35  1  1
 26 31  2  0
 26 27  1  0
 27 28  2  0
 28 29  1  0
 29 30  2  0
 29 35  1  0
 30 31  1  0
 30 33  1  0
 31 32  1  0
 33 34  2  0
 34 35  1  0
M  END
$$$$
