
     RDKit          3D

 35 38  0  0  0  0  0  0  0  0999 V2000
   27.0767   38.9371   93.1071 N   0  0  0  0  0  0  0  0  0  0  0  0
   27.4907   39.5944   94.3841 C   0  0  2  0  0  0  0  0  0  0  0  0
   26.4883   39.3125   95.4779 C   0  0  0  0  0  0  0  0  0  0  0  0
   25.5622   38.5447   95.2795 O   0  0  0  0  0  0  0  0  0  0  0  0
   27.6455   41.1020   94.1685 C   0  0  0  0  0  0  0  0  0  0  0  0
   28.7814   41.4338   93.2282 C   0  0  0  0  0  0  0  0  0  0  0  0
   30.0643   40.9333   93.4612 C   0  0  0  0  0  0  0  0  0  0  0  0
   28.5489   42.2487   92.1162 C   0  0  0  0  0  0  0  0  0  0  0  0
   31.1058   41.2519   92.5961 C   0  0  0  0  0  0  0  0  0  0  0  0
   29.5915   42.5714   91.2473 C   0  0  0  0  0  0  0  0  0  0  0  0
   30.8720   42.0676   91.4881 C   0  0  0  0  0  0  0  0  0  0  0  0
   31.8761   42.3555   90.6660 O   0  0  0  0  0  0  0  0  0  0  0  0
   25.7536   39.8819   98.0206 P   0  0  0  0  0  0  0  0  0  0  0  0
   24.5495   39.0012   97.8928 O   0  0  0  0  0  0  0  0  0  0  0  0
   25.5203   41.3000   98.4615 O   0  0  0  0  0  0  0  0  0  0  0  0
   26.6982   39.9449   96.6361 N   0  0  0  0  0  0  0  0  0  0  0  0
   27.9533   39.6856   99.4769 C   0  0  0  0  0  0  0  0  0  0  0  0
   26.6695   39.1690   99.1358 O   0  0  0  0  0  0  0  0  0  0  0  0
   28.8959   38.5392   99.8244 C   0  0  1  0  0  0  0  0  0  0  0  0
   28.6783   38.0963  101.1727 O   0  0  0  0  0  0  0  0  0  0  0  0
   28.7150   37.3642   98.8783 C   0  0  1  0  0  0  0  0  0  0  0  0
   30.0156   37.0935   98.3796 O   0  0  0  0  0  0  0  0  0  0  0  0
   28.2840   36.2019   99.7421 C   0  0  1  0  0  0  0  0  0  0  0  0
   28.9244   34.9637   99.4897 O   0  0  0  0  0  0  0  0  0  0  0  0
   28.3926   36.6960  101.1818 C   0  0  2  0  0  0  0  0  0  0  0  0
   27.1149   33.4023  104.8334 N   0  0  0  0  0  0  0  0  0  0  0  0
   28.4565   33.6392  104.3060 C   0  0  0  0  0  0  0  0  0  0  0  0
   28.4513   34.6621  103.2758 N   0  0  0  0  0  0  0  0  0  0  0  0
   27.3070   35.2891  102.8889 C   0  0  0  0  0  0  0  0  0  0  0  0
   26.0821   35.0242  103.4178 C   0  0  0  0  0  0  0  0  0  0  0  0
   25.9829   34.0025  104.4751 C   0  0  0  0  0  0  0  0  0  0  0  0
   24.8222   33.7029  105.0408 N   0  0  0  0  0  0  0  0  0  0  0  0
   25.2186   35.8408  102.7829 N   0  0  0  0  0  0  0  0  0  0  0  0
   25.9333   36.5706  101.8819 C   0  0  0  0  0  0  0  0  0  0  0  0
   27.2337   36.2273  101.9625 N   0  0  0  0  0  0  0  0  0  0  0  0
  2  1  1  6
  2  3  1  0
  2  5  1  0
  3  4  1  0
  3 16  2  3
  5  6  1  0
  6  7  2  0
  6  8  1  0
  7  9  1  0
  8 10  2  0
  9 11  2  0
 10 11  1  0
 11 12  1  0
 13 14  1  0
 13 15  2  0
 13 18  1  0
 13 16  1  0
 19 17  1  6
 17 18  1  0
 19 20  1  0
 19 21  1  0
 20 25  1  0
 21 22  1  1
 21 23  1  0
 23 24  1  1
 23 25  1  0
 25 35  1  1
 26 27  2  0
 26 31  1  0
 27 28  1  0
 28 29  2  0
 29 30  1  0
 29 35  1  0
 30 31  2  0
 30 33  1  0
 31 32  1  0
 33 34  2  0
 34 35  1  0
M  END
$$$$
