
     RDKit          3D

 35 38  0  0  0  0  0  0  0  0999 V2000
   27.0988   39.1331   93.4905 N   0  0  0  0  0  0  0  0  0  0  0  0
   27.5194   39.6226   94.8114 C   0  0  2  0  0  0  0  0  0  0  0  0
   26.3836   39.4813   95.8300 C   0  0  0  0  0  0  0  0  0  0  0  0
   25.2161   39.4611   95.4439 O   0  0  0  0  0  0  0  0  0  0  0  0
   26.7297   39.4012   97.1133 N   0  0  0  0  0  0  0  0  0  0  0  0
   24.4162   38.8551   98.4002 O   0  0  0  0  0  0  0  0  0  0  0  0
   25.2654   41.2943   98.2237 O   0  0  0  0  0  0  0  0  0  0  0  0
   27.8870   41.1052   94.7326 C   0  0  0  0  0  0  0  0  0  0  0  0
   25.5324   39.8204   98.1434 S   0  0  2  0  0  0  0  0  0  0  0  0
   28.9622   41.4150   93.6871 C   0  0  0  0  0  0  0  0  0  0  0  0
   28.7326   42.4466   92.7835 C   0  0  0  0  0  0  0  0  0  0  0  0
   30.1784   40.7401   93.6817 C   0  0  0  0  0  0  0  0  0  0  0  0
   29.7232   42.8151   91.8786 C   0  0  0  0  0  0  0  0  0  0  0  0
   31.1711   41.1110   92.7815 C   0  0  0  0  0  0  0  0  0  0  0  0
   30.9433   42.1491   91.8835 C   0  0  0  0  0  0  0  0  0  0  0  0
   31.9142   42.5369   91.0132 O   0  0  0  0  0  0  0  0  0  0  0  0
   26.8326   38.4240   99.6450 C   0  0  0  0  0  0  0  0  0  0  0  0
   26.2580   39.6943   99.3642 O   0  0  0  0  0  0  0  0  0  0  0  0
   28.3547   38.5018   99.7576 C   0  0  1  0  0  0  0  0  0  0  0  0
   28.6737   38.0345  101.0774 O   0  0  0  0  0  0  0  0  0  0  0  0
   28.8236   37.3605   98.8553 C   0  0  1  0  0  0  0  0  0  0  0  0
   30.2471   37.2356   98.9093 O   0  0  0  0  0  0  0  0  0  0  0  0
   28.1215   36.2379   99.6177 C   0  0  1  0  0  0  0  0  0  0  0  0
   28.6787   34.9668   99.2745 O   0  0  0  0  0  0  0  0  0  0  0  0
   28.4741   36.6100  101.0605 C   0  0  2  0  0  0  0  0  0  0  0  0
   27.0650   33.4286  104.8545 N   0  0  0  0  0  0  0  0  0  0  0  0
   28.2637   33.6210  104.3319 C   0  0  0  0  0  0  0  0  0  0  0  0
   28.4743   34.5081  103.3753 N   0  0  0  0  0  0  0  0  0  0  0  0
   27.4612   35.2497  102.9027 C   0  0  0  0  0  0  0  0  0  0  0  0
   26.1899   35.0796  103.4313 C   0  0  0  0  0  0  0  0  0  0  0  0
   26.0070   34.1351  104.4339 C   0  0  0  0  0  0  0  0  0  0  0  0
   24.8023   33.9238  104.9568 N   0  0  0  0  0  0  0  0  0  0  0  0
   25.3759   35.9077  102.7811 N   0  0  0  0  0  0  0  0  0  0  0  0
   26.1027   36.5673  101.8827 C   0  0  0  0  0  0  0  0  0  0  0  0
   27.3729   36.1691  101.9475 N   0  0  0  0  0  0  0  0  0  0  0  0
  2  1  1  6
  2  3  1  0
  2  8  1  0
  3  4  1  0
  3  5  2  3
  5  9  1  0
  6  9  2  0
  7  9  2  0
  8 10  1  0
  9 18  1  1
 10 11  2  0
 10 12  1  0
 11 13  1  0
 12 14  2  0
 13 15  2  0
 14 15  1  0
 15 16  1  0
 19 17  1  1
 17 18  1  0
 19 20  1  0
 19 21  1  0
 20 25  1  0
 21 22  1  1
 21 23  1  0
 23 24  1  6
 23 25  1  0
 25 35  1  1
 26 31  2  0
 26 27  1  0
 27 28  2  0
 28 29  1  0
 29 30  2  0
 29 35  1  0
 30 31  1  0
 30 33  1  0
 31 32  1  0
 33 34  2  0
 34 35  1  0
M  END
$$$$
