
     RDKit          3D

 34 37  0  0  0  0  0  0  0  0999 V2000
   28.5695   38.9675   94.2696 C   0  0  2  0  0  0  0  0  0  0  0  0
   27.8959   38.4729   95.5206 C   0  0  0  0  0  0  0  0  0  0  0  0
   29.0033   40.4277   94.3509 C   0  0  0  0  0  0  0  0  0  0  0  0
   30.0815   40.7007   93.4886 C   0  0  0  0  0  0  0  0  0  0  0  0
   31.2680   40.0017   93.6501 C   0  0  0  0  0  0  0  0  0  0  0  0
   29.9922   41.6713   92.4677 C   0  0  0  0  0  0  0  0  0  0  0  0
   32.3651   40.2662   92.8262 C   0  0  0  0  0  0  0  0  0  0  0  0
   31.0785   41.9018   91.6149 C   0  0  0  0  0  0  0  0  0  0  0  0
   32.2678   41.2086   91.8040 C   0  0  0  0  0  0  0  0  0  0  0  0
   27.6343   38.8000   93.1313 N   0  0  0  0  0  0  0  0  0  0  0  0
   33.3637   41.3937   91.0328 O   0  0  0  0  0  0  0  0  0  0  0  0
   26.2828   39.4462   97.1963 P   0  0  0  0  0  0  0  0  0  0  0  0
   25.6792   40.7690   97.4641 O   0  0  0  0  0  0  0  0  0  0  0  0
   25.1984   38.7193   97.8623 O   0  0  0  0  0  0  0  0  0  0  0  0
   27.6677   39.4235   99.3971 C   0  0  0  0  0  0  0  0  0  0  0  0
   27.6293   39.2920   97.9856 O   0  0  0  0  0  0  0  0  0  0  0  0
   28.8703   38.5509   99.8520 C   0  0  1  0  0  0  0  0  0  0  0  0
   28.4128   38.0438  101.1412 O   0  0  0  0  0  0  0  0  0  0  0  0
   29.1206   37.3126   98.9838 C   0  0  1  0  0  0  0  0  0  0  0  0
   30.4163   36.7801   99.0747 O   0  0  0  0  0  0  0  0  0  0  0  0
   28.1331   36.2715   99.5349 C   0  0  1  0  0  0  0  0  0  0  0  0
   28.6843   34.9433   99.3718 O   0  0  0  0  0  0  0  0  0  0  0  0
   28.0722   36.7091  100.9591 C   0  0  2  0  0  0  0  0  0  0  0  0
   27.3485   33.4470  104.7409 N   0  0  0  0  0  0  0  0  0  0  0  0
   28.4403   33.7756  103.9905 C   0  0  0  0  0  0  0  0  0  0  0  0
   28.5212   34.6379  103.0399 N   0  0  0  0  0  0  0  0  0  0  0  0
   27.3316   35.2631  102.8271 C   0  0  0  0  0  0  0  0  0  0  0  0
   26.1589   35.0507  103.4887 C   0  0  0  0  0  0  0  0  0  0  0  0
   26.1693   34.0998  104.5408 C   0  0  0  0  0  0  0  0  0  0  0  0
   25.1232   33.7793  105.3051 N   0  0  0  0  0  0  0  0  0  0  0  0
   25.1683   35.9082  103.0319 N   0  0  0  0  0  0  0  0  0  0  0  0
   25.7721   36.5806  102.0468 C   0  0  0  0  0  0  0  0  0  0  0  0
   27.0661   36.2387  101.8688 N   0  0  0  0  0  0  0  0  0  0  0  0
   26.5829   39.0343   95.7301 O   0  0  0  0  0  0  0  0  0  0  0  0
  1  2  1  0
  1  3  1  0
  1 10  1  6
  2 34  1  0
  3  4  1  0
  4  5  2  0
  4  6  1  0
  5  7  1  0
  6  8  2  0
  7  9  2  0
  8  9  1  0
  9 11  1  0
 12 13  1  0
 12 14  2  0
 12 16  1  0
 12 34  1  0
 17 15  1  6
 15 16  1  0
 17 18  1  0
 17 19  1  0
 18 23  1  0
 19 20  1  1
 19 21  1  0
 21 22  1  1
 21 23  1  0
 23 33  1  6
 24 25  2  0
 24 29  1  0
 25 26  1  0
 26 27  2  0
 27 28  1  0
 27 33  1  0
 28 29  2  0
 28 31  1  0
 29 30  1  0
 31 32  2  0
 32 33  1  0
M  CHG  1  11  -1
M  END
$$$$
