
     RDKit          3D

 35 38  0  0  0  0  0  0  0  0999 V2000
   27.8782   38.8085   93.1163 N   0  0  0  0  0  0  0  0  0  0  0  0
   28.2044   39.2268   94.4844 C   0  0  2  0  0  0  0  0  0  0  0  0
   26.9031   39.3155   95.2587 C   0  0  0  0  0  0  0  0  0  0  0  0
   25.8090   39.5199   94.7333 O   0  0  0  0  0  0  0  0  0  0  0  0
   27.0174   39.1614   96.6226 N   0  0  0  0  0  0  0  0  0  0  0  0
   24.8251   39.0367   97.6543 O   0  0  0  0  0  0  0  0  0  0  0  0
   26.0680   41.1653   97.8036 O   0  0  0  0  0  0  0  0  0  0  0  0
   28.7984   40.6349   94.5145 C   0  0  0  0  0  0  0  0  0  0  0  0
   26.0471   39.7496   97.7470 S   0  0  2  0  0  0  0  0  0  0  0  0
   30.0048   40.8132   93.6279 C   0  0  0  0  0  0  0  0  0  0  0  0
   31.1476   40.0369   93.8044 C   0  0  0  0  0  0  0  0  0  0  0  0
   30.0001   41.7642   92.6151 C   0  0  0  0  0  0  0  0  0  0  0  0
   32.2644   40.2200   93.0042 C   0  0  0  0  0  0  0  0  0  0  0  0
   31.0941   41.9258   91.7851 C   0  0  0  0  0  0  0  0  0  0  0  0
   32.2307   41.1536   91.9782 C   0  0  0  0  0  0  0  0  0  0  0  0
   33.2857   41.2914   91.1327 O   0  0  0  0  0  0  0  0  0  0  0  0
   28.1085   39.7411   99.3472 C   0  0  0  0  0  0  0  0  0  0  0  0
   26.7598   39.2318   99.0730 O   0  0  0  0  0  0  0  0  0  0  0  0
   28.9258   38.5790   99.8600 C   0  0  1  0  0  0  0  0  0  0  0  0
   28.3592   38.0822  101.0953 O   0  0  0  0  0  0  0  0  0  0  0  0
   29.0235   37.3725   98.9188 C   0  0  1  0  0  0  0  0  0  0  0  0
   30.3622   36.8822   98.8950 O   0  0  0  0  0  0  0  0  0  0  0  0
   28.0587   36.3754   99.5499 C   0  0  1  0  0  0  0  0  0  0  0  0
   28.3628   35.0222   99.2754 O   0  0  0  0  0  0  0  0  0  0  0  0
   28.3035   36.6734  101.0195 C   0  0  2  0  0  0  0  0  0  0  0  0
   27.2158   33.4336  104.8584 N   0  0  0  0  0  0  0  0  0  0  0  0
   28.3688   33.7609  104.2617 C   0  0  0  0  0  0  0  0  0  0  0  0
   28.5826   34.6562  103.2903 N   0  0  0  0  0  0  0  0  0  0  0  0
   27.4403   35.2432  102.9130 C   0  0  0  0  0  0  0  0  0  0  0  0
   26.1752   35.0127  103.4379 C   0  0  0  0  0  0  0  0  0  0  0  0
   26.0778   34.0461  104.4589 C   0  0  0  0  0  0  0  0  0  0  0  0
   24.9158   33.6550  105.0017 N   0  0  0  0  0  0  0  0  0  0  0  0
   25.2309   35.8101  102.8099 N   0  0  0  0  0  0  0  0  0  0  0  0
   25.9298   36.4822  101.9250 C   0  0  0  0  0  0  0  0  0  0  0  0
   27.2693   36.1809  101.9239 N   0  0  0  0  0  0  0  0  0  0  0  0
  2  1  1  6
  2  3  1  0
  2  8  1  0
  3  4  1  0
  3  5  2  3
  5  9  1  0
  6  9  2  0
  7  9  2  0
  8 10  1  0
  9 18  1  1
 10 11  2  0
 10 12  1  0
 11 13  1  0
 12 14  2  0
 13 15  2  0
 14 15  1  0
 15 16  1  0
 19 17  1  6
 17 18  1  0
 19 20  1  0
 19 21  1  0
 20 25  1  0
 21 22  1  1
 21 23  1  0
 23 24  1  1
 23 25  1  0
 25 35  1  1
 26 31  2  0
 26 27  1  0
 27 28  2  0
 28 29  1  0
 29 30  2  0
 29 35  1  0
 30 31  1  0
 30 33  1  0
 31 32  1  0
 33 34  2  0
 34 35  1  0
M  END
$$$$
