
     RDKit          3D

 35 38  0  0  0  0  0  0  0  0999 V2000
   26.6650   38.6141   93.0980 N   0  0  0  0  0  0  0  0  0  0  0  0
   27.0607   39.3268   94.3508 C   0  0  2  0  0  0  0  0  0  0  0  0
   26.1008   39.0068   95.4719 C   0  0  0  0  0  0  0  0  0  0  0  0
   25.2228   38.1765   95.3106 O   0  0  0  0  0  0  0  0  0  0  0  0
   27.1130   40.8357   94.0983 C   0  0  0  0  0  0  0  0  0  0  0  0
   28.2060   41.2177   93.1267 C   0  0  0  0  0  0  0  0  0  0  0  0
   29.5231   40.8066   93.3433 C   0  0  0  0  0  0  0  0  0  0  0  0
   27.8989   41.9893   92.0020 C   0  0  0  0  0  0  0  0  0  0  0  0
   30.5242   41.1711   92.4490 C   0  0  0  0  0  0  0  0  0  0  0  0
   28.9008   42.3579   91.1039 C   0  0  0  0  0  0  0  0  0  0  0  0
   30.2159   41.9435   91.3284 C   0  0  0  0  0  0  0  0  0  0  0  0
   31.1826   42.2760   90.4788 O   0  0  0  0  0  0  0  0  0  0  0  0
   25.3816   39.5878   98.0164 P   0  0  0  0  0  0  0  0  0  0  0  0
   24.2349   38.6285   97.9342 O   0  0  0  0  0  0  0  0  0  0  0  0
   25.0656   40.9979   98.4304 O   0  0  0  0  0  0  0  0  0  0  0  0
   26.2924   39.6787   96.6109 N   0  0  0  0  0  0  0  0  0  0  0  0
   27.6181   39.5682   99.4292 C   0  0  0  0  0  0  0  0  0  0  0  0
   26.3640   38.9620   99.1274 O   0  0  0  0  0  0  0  0  0  0  0  0
   28.6398   38.4936   99.7819 C   0  0  1  0  0  0  0  0  0  0  0  0
   28.4784   38.0696  101.1442 O   0  0  0  0  0  0  0  0  0  0  0  0
   28.5168   37.2873   98.8664 C   0  0  1  0  0  0  0  0  0  0  0  0
   29.8220   37.0892   98.3461 O   0  0  0  0  0  0  0  0  0  0  0  0
   28.1795   36.1203   99.7651 C   0  0  1  0  0  0  0  0  0  0  0  0
   28.8938   34.9204   99.5267 O   0  0  0  0  0  0  0  0  0  0  0  0
   28.2845   36.6545  101.1907 C   0  0  2  0  0  0  0  0  0  0  0  0
   27.2965   33.3727  104.9416 N   0  0  0  0  0  0  0  0  0  0  0  0
   28.6092   33.6830  104.3803 C   0  0  0  0  0  0  0  0  0  0  0  0
   28.5169   34.6788  103.3279 N   0  0  0  0  0  0  0  0  0  0  0  0
   27.3268   35.2213  102.9517 C   0  0  0  0  0  0  0  0  0  0  0  0
   26.1326   34.8906  103.5126 C   0  0  0  0  0  0  0  0  0  0  0  0
   26.1210   33.8900  104.5943 C   0  0  0  0  0  0  0  0  0  0  0  0
   24.9937   33.5296  105.1913 N   0  0  0  0  0  0  0  0  0  0  0  0
   25.2053   35.6346  102.8783 N   0  0  0  0  0  0  0  0  0  0  0  0
   25.8530   36.3874  101.9460 C   0  0  0  0  0  0  0  0  0  0  0  0
   27.1743   36.1307  102.0064 N   0  0  0  0  0  0  0  0  0  0  0  0
  2  1  1  6
  2  3  1  0
  2  5  1  0
  3  4  1  0
  3 16  2  3
  5  6  1  0
  6  7  2  0
  6  8  1  0
  7  9  1  0
  8 10  2  0
  9 11  2  0
 10 11  1  0
 11 12  1  0
 13 14  1  0
 13 15  2  0
 13 18  1  0
 13 16  1  0
 19 17  1  6
 17 18  1  0
 19 20  1  0
 19 21  1  0
 20 25  1  0
 21 22  1  1
 21 23  1  0
 23 24  1  1
 23 25  1  0
 25 35  1  1
 26 27  2  0
 26 31  1  0
 27 28  1  0
 28 29  2  0
 29 30  1  0
 29 35  1  0
 30 31  2  0
 30 33  1  0
 31 32  1  0
 33 34  2  0
 34 35  1  0
M  END
$$$$
