
     RDKit          3D

 31 33  0  0  0  0  0  0  0  0999 V2000
   25.1958   39.7698   98.5975 P   0  0  0  0  0  0  0  0  0  0  0  0
   23.2511   37.5007   98.5439 P   0  0  0  0  0  0  0  0  0  0  0  0
   21.7808   37.5231  100.9923 P   0  0  0  0  0  0  0  0  0  0  0  0
   27.7050   39.4635   99.3305 C   0  0  0  0  0  0  0  0  0  0  0  0
   26.3503   38.9970   99.3634 O   0  0  0  0  0  0  0  0  0  0  0  0
   28.6323   38.3297   99.6845 C   0  0  1  0  0  0  0  0  0  0  0  0
   28.4451   37.9731  101.0721 O   0  0  0  0  0  0  0  0  0  0  0  0
   28.3254   37.0582   98.9166 C   0  0  1  0  0  0  0  0  0  0  0  0
   29.0796   37.0411   97.7062 O   0  0  0  0  0  0  0  0  0  0  0  0
   28.7998   35.9537   99.8424 C   0  0  1  0  0  0  0  0  0  0  0  0
   30.1740   35.7248   99.6347 O   0  0  0  0  0  0  0  0  0  0  0  0
   28.5577   36.5733  101.2217 C   0  0  2  0  0  0  0  0  0  0  0  0
   26.8813   33.4468  104.9284 N   0  0  0  0  0  0  0  0  0  0  0  0
   25.8217   40.5195   97.4556 O   0  0  0  0  0  0  0  0  0  0  0  0
   23.9859   36.1787   98.5903 O   0  0  0  0  0  0  0  0  0  0  0  0
   21.5956   38.7377  101.8781 O   0  0  0  0  0  0  0  0  0  0  0  0
   28.0991   33.6880  104.4317 C   0  0  0  0  0  0  0  0  0  0  0  0
   24.3945   40.5185   99.6196 O   0  0  0  0  0  0  0  0  0  0  0  0
   21.9035   37.5810   97.8583 O   0  0  0  0  0  0  0  0  0  0  0  0
   20.7082   37.2630   99.9466 O   0  0  0  0  0  0  0  0  0  0  0  0
   28.4671   34.5268  103.4662 N   0  0  0  0  0  0  0  0  0  0  0  0
   24.2395   38.6384   97.9585 O   0  0  0  0  0  0  0  0  0  0  0  0
   22.9724   37.9879  100.0357 O   0  0  0  0  0  0  0  0  0  0  0  0
   22.4146   36.3119  101.6314 O   0  0  0  0  0  0  0  0  0  0  0  0
   27.4017   35.1726  102.9708 C   0  0  0  0  0  0  0  0  0  0  0  0
   26.0881   35.0390  103.3768 C   0  0  0  0  0  0  0  0  0  0  0  0
   25.8339   34.1251  104.4206 C   0  0  0  0  0  0  0  0  0  0  0  0
   24.6215   33.8975  104.9354 N   0  0  0  0  0  0  0  0  0  0  0  0
   25.2581   35.8663  102.6298 N   0  0  0  0  0  0  0  0  0  0  0  0
   26.0761   36.4692  101.8021 C   0  0  0  0  0  0  0  0  0  0  0  0
   27.3873   36.0958  101.9545 N   0  0  0  0  0  0  0  0  0  0  0  0
  1  5  1  0
  1 14  1  0
  1 18  2  0
  1 22  1  0
  2 15  1  0
  2 19  2  0
  2 22  1  0
  2 23  1  0
  3 16  1  0
  3 20  1  0
  3 23  1  0
  3 24  2  0
  6  4  1  6
  4  5  1  0
  6  7  1  0
  6  8  1  0
  7 12  1  0
  8  9  1  6
  8 10  1  0
 10 11  1  6
 10 12  1  0
 12 31  1  6
 13 17  2  0
 13 27  1  0
 17 21  1  0
 21 25  2  0
 25 26  1  0
 25 31  1  0
 26 27  2  0
 26 29  1  0
 27 28  1  0
 29 30  2  0
 30 31  1  0
M  END
$$$$
