
     RDKit          3D

 31 33  0  0  0  0  0  0  0  0999 V2000
   25.0646   39.6893   98.8262 P   0  0  0  0  0  0  0  0  0  0  0  0
   22.9752   38.9745  100.8223 P   0  0  0  0  0  0  0  0  0  0  0  0
   20.4881   39.9073   99.5865 P   0  0  0  0  0  0  0  0  0  0  0  0
   27.7036   39.6217   99.3637 C   0  0  0  0  0  0  0  0  0  0  0  0
   26.4682   38.9985   98.8510 O   0  0  0  0  0  0  0  0  0  0  0  0
   28.6480   38.5722   99.7719 C   0  0  1  0  0  0  0  0  0  0  0  0
   28.2744   37.9306  101.0093 O   0  0  0  0  0  0  0  0  0  0  0  0
   28.9665   37.4037   98.8111 C   0  0  1  0  0  0  0  0  0  0  0  0
   30.3685   37.1300   98.8061 O   0  0  0  0  0  0  0  0  0  0  0  0
   28.1293   36.3220   99.4828 C   0  0  1  0  0  0  0  0  0  0  0  0
   28.3032   34.9798   99.0921 O   0  0  0  0  0  0  0  0  0  0  0  0
   28.4166   36.5535  100.9750 C   0  0  2  0  0  0  0  0  0  0  0  0
   27.1672   33.5145  105.1135 N   0  0  0  0  0  0  0  0  0  0  0  0
   24.2071   38.9167   97.9057 O   0  0  0  0  0  0  0  0  0  0  0  0
   22.7800   37.5524  100.4575 O   0  0  0  0  0  0  0  0  0  0  0  0
   20.5669   39.0771   98.3561 O   0  0  0  0  0  0  0  0  0  0  0  0
   28.4460   33.7327  104.5547 C   0  0  0  0  0  0  0  0  0  0  0  0
   25.2376   41.1147   98.5636 O   0  0  0  0  0  0  0  0  0  0  0  0
   22.9299   39.0701  102.2897 O   0  0  0  0  0  0  0  0  0  0  0  0
   20.0106   41.2470   99.2015 O   0  0  0  0  0  0  0  0  0  0  0  0
   28.5812   34.5624  103.4508 N   0  0  0  0  0  0  0  0  0  0  0  0
   24.4242   39.4664  100.3026 O   0  0  0  0  0  0  0  0  0  0  0  0
   21.9494   40.0161  100.2333 O   0  0  0  0  0  0  0  0  0  0  0  0
   19.5966   39.2736  100.5999 O   0  0  0  0  0  0  0  0  0  0  0  0
   27.4531   35.1639  102.9351 C   0  0  0  0  0  0  0  0  0  0  0  0
   26.1535   34.9661  103.4718 C   0  0  0  0  0  0  0  0  0  0  0  0
   25.9949   34.0945  104.6244 C   0  0  0  0  0  0  0  0  0  0  0  0
   24.8365   33.8348  105.2214 N   0  0  0  0  0  0  0  0  0  0  0  0
   25.2190   35.6756  102.7577 N   0  0  0  0  0  0  0  0  0  0  0  0
   25.9563   36.3085  101.7989 C   0  0  0  0  0  0  0  0  0  0  0  0
   27.3124   36.0138  101.8831 N   0  0  0  0  0  0  0  0  0  0  0  0
  1  5  1  0
  1 14  1  0
  1 18  2  0
  1 22  1  0
  2 15  1  0
  2 19  2  0
  2 22  1  0
  2 23  1  0
  3 16  1  0
  3 20  1  0
  3 23  1  0
  3 24  2  0
  6  4  1  6
  4  5  1  0
  6  7  1  0
  6  8  1  0
  7 12  1  0
  8  9  1  1
  8 10  1  0
 10 11  1  6
 10 12  1  0
 12 31  1  1
 13 17  2  0
 13 27  1  0
 17 21  1  0
 21 25  2  0
 25 26  1  0
 25 31  1  0
 26 27  2  0
 26 29  1  0
 27 28  1  0
 29 30  2  0
 30 31  1  0
M  END
$$$$
