
     RDKit          3D

 35 38  0  0  0  0  0  0  0  0999 V2000
   28.6445   38.4040   92.4983 N   0  0  0  0  0  0  0  0  0  0  0  0
   28.9678   38.7789   93.8831 C   0  0  2  0  0  0  0  0  0  0  0  0
   27.7088   38.6698   94.7395 C   0  0  0  0  0  0  0  0  0  0  0  0
   26.6777   38.1710   94.2857 O   0  0  0  0  0  0  0  0  0  0  0  0
   27.8281   39.1694   95.9682 N   0  0  0  0  0  0  0  0  0  0  0  0
   26.1820   37.7379   97.3245 O   0  0  0  0  0  0  0  0  0  0  0  0
   25.4362   39.9066   96.4560 O   0  0  0  0  0  0  0  0  0  0  0  0
   29.4741   40.2239   93.9284 C   0  0  0  0  0  0  0  0  0  0  0  0
   26.5968   39.1513   97.0333 S   0  0  2  0  0  0  0  0  0  0  0  0
   30.7991   40.4051   93.1853 C   0  0  0  0  0  0  0  0  0  0  0  0
   30.8484   41.1770   92.0297 C   0  0  0  0  0  0  0  0  0  0  0  0
   31.9599   39.8132   93.6766 C   0  0  0  0  0  0  0  0  0  0  0  0
   32.0584   41.3602   91.3658 C   0  0  0  0  0  0  0  0  0  0  0  0
   33.1698   39.9975   93.0136 C   0  0  0  0  0  0  0  0  0  0  0  0
   33.2199   40.7717   91.8597 C   0  0  0  0  0  0  0  0  0  0  0  0
   34.4038   40.9493   91.2133 O   0  0  0  0  0  0  0  0  0  0  0  0
   27.1179   39.1253   99.5455 C   0  0  0  0  0  0  0  0  0  0  0  0
   27.0473   39.8217   98.2985 O   0  0  0  0  0  0  0  0  0  0  0  0
   28.4963   38.5127   99.8114 C   0  0  1  0  0  0  0  0  0  0  0  0
   28.4951   37.9249  101.1254 O   0  0  0  0  0  0  0  0  0  0  0  0
   28.8247   37.3571   98.8629 C   0  0  1  0  0  0  0  0  0  0  0  0
   30.2174   37.0414   98.9333 O   0  0  0  0  0  0  0  0  0  0  0  0
   28.0076   36.2455   99.5186 C   0  0  1  0  0  0  0  0  0  0  0  0
   28.5378   34.9805   99.1150 O   0  0  0  0  0  0  0  0  0  0  0  0
   28.3394   36.4999  100.9907 C   0  0  2  0  0  0  0  0  0  0  0  0
   27.2269   33.5568  105.0806 N   0  0  0  0  0  0  0  0  0  0  0  0
   28.4038   33.7749  104.5180 C   0  0  0  0  0  0  0  0  0  0  0  0
   28.5186   34.5567  103.4573 N   0  0  0  0  0  0  0  0  0  0  0  0
   27.4459   35.1558  102.9177 C   0  0  0  0  0  0  0  0  0  0  0  0
   26.1949   34.9479  103.4850 C   0  0  0  0  0  0  0  0  0  0  0  0
   26.1085   34.1170  104.5979 C   0  0  0  0  0  0  0  0  0  0  0  0
   24.9347   33.8837  105.1779 N   0  0  0  0  0  0  0  0  0  0  0  0
   25.3167   35.6550  102.7839 N   0  0  0  0  0  0  0  0  0  0  0  0
   25.9835   36.2860  101.8214 C   0  0  0  0  0  0  0  0  0  0  0  0
   27.2797   35.9848  101.8901 N   0  0  0  0  0  0  0  0  0  0  0  0
  2  1  1  6
  2  3  1  0
  2  8  1  0
  3  4  1  0
  3  5  2  3
  5  9  1  0
  6  9  2  0
  7  9  2  0
  8 10  1  0
  9 18  1  1
 10 11  2  0
 10 12  1  0
 11 13  1  0
 12 14  2  0
 13 15  2  0
 14 15  1  0
 15 16  1  0
 19 17  1  6
 17 18  1  0
 19 20  1  0
 19 21  1  0
 20 25  1  0
 21 22  1  1
 21 23  1  0
 23 24  1  6
 23 25  1  0
 25 35  1  1
 26 31  2  0
 26 27  1  0
 27 28  2  0
 28 29  1  0
 29 30  2  0
 29 35  1  0
 30 31  1  0
 30 33  1  0
 31 32  1  0
 33 34  2  0
 34 35  1  0
M  END
$$$$
