
     RDKit          3D

 35 38  0  0  0  0  0  0  0  0999 V2000
   27.3472   38.9181   93.3673 N   0  0  0  0  0  0  0  0  0  0  0  0
   27.7235   39.4448   94.6873 C   0  0  2  0  0  0  0  0  0  0  0  0
   26.5599   39.3155   95.6756 C   0  0  0  0  0  0  0  0  0  0  0  0
   25.4045   39.2724   95.2563 O   0  0  0  0  0  0  0  0  0  0  0  0
   26.8690   39.2710   96.9700 N   0  0  0  0  0  0  0  0  0  0  0  0
   24.5247   38.7301   98.2023 O   0  0  0  0  0  0  0  0  0  0  0  0
   25.3523   41.1739   97.9898 O   0  0  0  0  0  0  0  0  0  0  0  0
   28.0773   40.9292   94.5823 C   0  0  0  0  0  0  0  0  0  0  0  0
   25.6374   39.7016   97.9540 S   0  0  2  0  0  0  0  0  0  0  0  0
   29.1793   41.2255   93.5611 C   0  0  0  0  0  0  0  0  0  0  0  0
   28.9652   42.2319   92.6258 C   0  0  0  0  0  0  0  0  0  0  0  0
   30.4023   40.5647   93.6079 C   0  0  0  0  0  0  0  0  0  0  0  0
   29.9780   42.5894   91.7412 C   0  0  0  0  0  0  0  0  0  0  0  0
   31.4170   40.9248   92.7281 C   0  0  0  0  0  0  0  0  0  0  0  0
   31.2044   41.9378   91.7982 C   0  0  0  0  0  0  0  0  0  0  0  0
   32.1963   42.3153   90.9471 O   0  0  0  0  0  0  0  0  0  0  0  0
   26.9080   38.3577   99.5272 C   0  0  0  0  0  0  0  0  0  0  0  0
   26.3282   39.6139   99.1982 O   0  0  0  0  0  0  0  0  0  0  0  0
   28.4252   38.4557   99.6821 C   0  0  1  0  0  0  0  0  0  0  0  0
   28.7103   38.0247  101.0219 O   0  0  0  0  0  0  0  0  0  0  0  0
   28.9327   37.2980   98.8226 C   0  0  1  0  0  0  0  0  0  0  0  0
   30.3553   37.1909   98.9210 O   0  0  0  0  0  0  0  0  0  0  0  0
   28.2206   36.1865   99.5919 C   0  0  1  0  0  0  0  0  0  0  0  0
   28.8014   34.9138   99.2968 O   0  0  0  0  0  0  0  0  0  0  0  0
   28.5267   36.5980  101.0346 C   0  0  2  0  0  0  0  0  0  0  0  0
   27.0411   33.4949  104.8641 N   0  0  0  0  0  0  0  0  0  0  0  0
   28.2525   33.6882  104.3720 C   0  0  0  0  0  0  0  0  0  0  0  0
   28.4816   34.5539  103.4002 N   0  0  0  0  0  0  0  0  0  0  0  0
   27.4748   35.2719  102.8800 C   0  0  0  0  0  0  0  0  0  0  0  0
   26.1905   35.1002  103.3754 C   0  0  0  0  0  0  0  0  0  0  0  0
   25.9884   34.1786  104.3954 C   0  0  0  0  0  0  0  0  0  0  0  0
   24.7712   33.9664  104.8882 N   0  0  0  0  0  0  0  0  0  0  0  0
   25.3871   35.9026  102.6813 N   0  0  0  0  0  0  0  0  0  0  0  0
   26.1327   36.5483  101.7883 C   0  0  0  0  0  0  0  0  0  0  0  0
   27.4048   36.1664  101.8999 N   0  0  0  0  0  0  0  0  0  0  0  0
  2  1  1  6
  2  3  1  0
  2  8  1  0
  3  4  1  0
  3  5  2  3
  5  9  1  0
  6  9  2  0
  7  9  2  0
  8 10  1  0
  9 18  1  1
 10 11  2  0
 10 12  1  0
 11 13  1  0
 12 14  2  0
 13 15  2  0
 14 15  1  0
 15 16  1  0
 19 17  1  1
 17 18  1  0
 19 20  1  0
 19 21  1  0
 20 25  1  0
 21 22  1  1
 21 23  1  0
 23 24  1  6
 23 25  1  0
 25 35  1  1
 26 31  2  0
 26 27  1  0
 27 28  2  0
 28 29  1  0
 29 30  2  0
 29 35  1  0
 30 31  1  0
 30 33  1  0
 31 32  1  0
 33 34  2  0
 34 35  1  0
M  END
$$$$
