
     RDKit          3D

 34 37  0  0  0  0  0  0  0  0999 V2000
   27.5518   38.9949   94.8520 C   0  0  2  0  0  0  0  0  0  0  0  0
   26.1564   38.6322   95.3500 C   0  0  0  0  0  0  0  0  0  0  0  0
   27.8119   40.4941   94.8435 C   0  0  0  0  0  0  0  0  0  0  0  0
   28.8593   40.9452   93.7781 C   0  0  0  0  0  0  0  0  0  0  0  0
   28.5770   42.0005   92.9349 C   0  0  0  0  0  0  0  0  0  0  0  0
   30.0843   40.2742   93.6617 C   0  0  0  0  0  0  0  0  0  0  0  0
   29.5166   42.3842   91.9897 C   0  0  0  0  0  0  0  0  0  0  0  0
   31.0185   40.6633   92.7250 C   0  0  0  0  0  0  0  0  0  0  0  0
   30.7279   41.7237   91.8783 C   0  0  0  0  0  0  0  0  0  0  0  0
   27.6956   38.4555   93.4960 N   0  0  0  0  0  0  0  0  0  0  0  0
   31.6269   42.1263   90.9388 O   0  0  0  0  0  0  0  0  0  0  0  0
   25.5913   39.0683   97.7191 P   0  0  0  0  0  0  0  0  0  0  0  0
   24.7176   38.2392   98.7894 O   0  0  0  0  0  0  0  0  0  0  0  0
   24.8069   40.2862   97.2126 O   0  0  0  0  0  0  0  0  0  0  0  0
   27.2481   39.2280   99.7322 C   0  0  0  0  0  0  0  0  0  0  0  0
   26.9792   39.4920   98.3667 O   0  0  0  0  0  0  0  0  0  0  0  0
   28.5459   38.4904   99.9095 C   0  0  1  0  0  0  0  0  0  0  0  0
   28.5173   37.8035  101.1811 O   0  0  0  0  0  0  0  0  0  0  0  0
   28.8137   37.4144   98.8774 C   0  0  1  0  0  0  0  0  0  0  0  0
   30.2155   37.1464   98.8369 O   0  0  0  0  0  0  0  0  0  0  0  0
   28.0760   36.2182   99.4748 C   0  0  1  0  0  0  0  0  0  0  0  0
   28.5213   34.9570   99.0215 O   0  0  0  0  0  0  0  0  0  0  0  0
   28.3269   36.4094  100.9730 C   0  0  2  0  0  0  0  0  0  0  0  0
   27.2440   33.6174  105.1003 N   0  0  0  0  0  0  0  0  0  0  0  0
   28.4236   33.8333  104.4944 C   0  0  0  0  0  0  0  0  0  0  0  0
   28.5398   34.6092  103.3945 N   0  0  0  0  0  0  0  0  0  0  0  0
   27.4256   35.1853  102.8988 C   0  0  0  0  0  0  0  0  0  0  0  0
   26.1762   34.9949  103.5004 C   0  0  0  0  0  0  0  0  0  0  0  0
   26.1122   34.1803  104.6427 C   0  0  0  0  0  0  0  0  0  0  0  0
   24.8771   33.9541  105.2916 N   0  0  0  0  0  0  0  0  0  0  0  0
   25.2596   35.6924  102.7650 N   0  0  0  0  0  0  0  0  0  0  0  0
   25.9149   36.2988  101.7561 C   0  0  0  0  0  0  0  0  0  0  0  0
   27.2221   35.9730  101.8278 N   0  0  0  0  0  0  0  0  0  0  0  0
   26.0282   38.1109   96.5367 O   0  0  0  0  0  0  0  0  0  0  0  0
  1  2  1  0
  1  3  1  0
  1 10  1  6
  2 34  1  0
  3  4  1  0
  4  5  2  0
  4  6  1  0
  5  7  1  0
  6  8  2  0
  7  9  2  0
  8  9  1  0
  9 11  1  0
 12 13  1  0
 12 14  2  0
 12 16  1  0
 12 34  1  0
 17 15  1  6
 15 16  1  0
 17 18  1  0
 17 19  1  0
 18 23  1  0
 19 20  1  1
 19 21  1  0
 21 22  1  6
 21 23  1  0
 23 33  1  1
 24 25  2  0
 24 29  1  0
 25 26  1  0
 26 27  2  0
 27 28  1  0
 27 33  1  0
 28 29  2  0
 28 31  1  0
 29 30  1  0
 31 32  2  0
 32 33  1  0
M  CHG  1  11  -1
M  END
$$$$
