
     RDKit          3D

 37 40  0  0  0  0  0  0  0  0999 V2000
   26.8013   38.7437   93.0176 N   0  0  0  0  0  0  0  0  0  0  0  0
   27.2482   39.1205   94.3716 C   0  0  2  0  0  0  0  0  0  0  0  0
   26.0713   39.0792   95.3249 C   0  0  0  0  0  0  0  0  0  0  0  0
   24.8833   39.0410   95.0292 O   0  0  0  0  0  0  0  0  0  0  0  0
   27.7415   40.5728   94.4818 C   0  0  0  0  0  0  0  0  0  0  0  0
   26.2931   31.2155  105.6930 O   0  0  0  0  0  0  0  0  0  0  0  0
   27.5703   39.5228   99.2110 C   0  0  0  0  0  0  0  0  0  0  0  0
   26.3486   38.7487   99.0801 O   0  0  0  0  0  0  0  0  0  0  0  0
   28.6445   38.5885   99.7082 C   0  0  1  0  0  0  0  0  0  0  0  0
   28.2695   38.0808  101.0104 O   0  0  0  0  0  0  0  0  0  0  0  0
   28.9181   37.3609   98.8322 C   0  0  1  0  0  0  0  0  0  0  0  0
   30.3076   37.0410   98.7829 O   0  0  0  0  0  0  0  0  0  0  0  0
   28.1503   36.2513   99.5496 C   0  0  1  0  0  0  0  0  0  0  0  0
   28.7490   34.9738   99.4081 O   0  0  0  0  0  0  0  0  0  0  0  0
   28.3440   36.6672  101.0021 C   0  0  2  0  0  0  0  0  0  0  0  0
   28.3361   33.5650  104.3948 C   0  0  0  0  0  0  0  0  0  0  0  0
   24.2989   38.2737   97.8029 O   0  0  0  0  0  0  0  0  0  0  0  0
   27.0826   33.4028  104.9770 C   0  0  0  0  0  0  0  0  0  0  0  0
   26.8908   32.4326  106.1152 C   0  0  0  0  0  0  0  0  0  0  0  0
   25.1870   40.5759   97.9690 O   0  0  0  0  0  0  0  0  0  0  0  0
   26.0080   34.1416  104.4994 C   0  0  0  0  0  0  0  0  0  0  0  0
   26.4133   39.1077   96.6601 N   0  0  0  0  0  0  0  0  0  0  0  0
   28.7591   40.9885   93.4584 C   0  0  0  0  0  0  0  0  0  0  0  0
   26.1981   35.0387  103.4532 C   0  0  0  0  0  0  0  0  0  0  0  0
   30.0449   40.4635   93.4737 C   0  0  0  0  0  0  0  0  0  0  0  0
   27.4688   35.1908  102.8818 C   0  0  0  0  0  0  0  0  0  0  0  0
   31.0091   40.8988   92.5834 C   0  0  0  0  0  0  0  0  0  0  0  0
   28.5677   34.4490  103.3297 C   0  0  0  0  0  0  0  0  0  0  0  0
   29.8373   34.5032  102.7632 N   0  0  0  0  0  0  0  0  0  0  0  0
   30.6922   41.8763   91.6536 C   0  0  0  0  0  0  0  0  0  0  0  0
   27.3166   36.1424  101.8940 N   0  0  0  0  0  0  0  0  0  0  0  0
   25.9959   36.5026  101.9160 C   0  0  0  0  0  0  0  0  0  0  0  0
   31.6362   42.3419   90.7809 O   0  0  0  0  0  0  0  0  0  0  0  0
   29.4081   42.4001   91.6101 C   0  0  0  0  0  0  0  0  0  0  0  0
   25.2864   35.8760  102.8226 N   0  0  0  0  0  0  0  0  0  0  0  0
   28.4581   41.9529   92.5086 C   0  0  0  0  0  0  0  0  0  0  0  0
   25.3933   39.1751   97.8781 S   0  0  1  0  0  0  0  0  0  0  0  0
  2  1  1  6
  2  3  1  0
  2  5  1  0
  3  4  1  0
  3 22  2  3
  5 23  1  0
  6 19  1  0
  7  8  1  0
  9  7  1  6
 37  8  1  1
  9 10  1  0
  9 11  1  0
 10 15  1  0
 11 12  1  1
 11 13  1  0
 13 14  1  1
 13 15  1  0
 15 31  1  1
 16 18  2  0
 16 28  1  0
 17 37  2  0
 18 19  1  0
 18 21  1  0
 20 37  2  0
 21 24  2  0
 22 37  1  0
 23 25  2  0
 23 36  1  0
 24 26  1  0
 24 35  1  0
 25 27  1  0
 26 28  2  0
 26 31  1  0
 27 30  2  0
 28 29  1  0
 30 33  1  0
 30 34  1  0
 31 32  1  0
 32 35  2  0
 34 36  2  0
M  END
$$$$
