
     RDKit          3D

 23 25  0  0  0  0  0  0  0  0999 V2000
   24.8520   39.0980   98.9800 P   0  0  0  0  0  0  0  0  0  0  0  0
   24.9950   40.0190   97.7610 O   0  0  0  0  0  0  0  0  0  0  0  0
   24.0250   37.8170   98.8280 O   0  0  0  0  0  0  0  0  0  0  0  0
   24.4480   39.8200  100.2410 O   0  0  0  0  0  0  0  0  0  0  0  0
   27.5090   39.4020   99.1840 C   0  0  0  0  0  0  0  0  0  0  0  0
   26.3670   38.5290   99.0760 O   0  0  0  0  0  0  0  0  0  0  0  0
   28.6960   38.5750   99.6550 C   0  0  1  0  0  0  0  0  0  0  0  0
   28.4210   38.2410  101.0280 O   0  0  0  0  0  0  0  0  0  0  0  0
   28.8590   37.2540   98.8980 C   0  0  1  0  0  0  0  0  0  0  0  0
   30.2350   36.8000   98.7360 O   0  0  0  0  0  0  0  0  0  0  0  0
   28.1460   36.2710   99.8020 C   0  0  1  0  0  0  0  0  0  0  0  0
   28.6290   34.9250   99.6320 O   0  0  0  0  0  0  0  0  0  0  0  0
   28.3860   36.8500  101.2110 C   0  0  2  0  0  0  0  0  0  0  0  0
   27.1550   33.3320  104.6740 N   0  0  0  0  0  0  0  0  0  0  0  0
   28.3770   33.6320  104.1920 C   0  0  0  0  0  0  0  0  0  0  0  0
   28.5810   34.6070  103.3090 N   0  0  0  0  0  0  0  0  0  0  0  0
   27.4760   35.3080  102.8740 C   0  0  0  0  0  0  0  0  0  0  0  0
   26.1480   35.0300  103.3740 C   0  0  0  0  0  0  0  0  0  0  0  0
   26.0240   33.9470  104.3250 C   0  0  0  0  0  0  0  0  0  0  0  0
   24.8340   33.5950  104.8250 N   0  0  0  0  0  0  0  0  0  0  0  0
   25.2660   35.8580  102.7760 N   0  0  0  0  0  0  0  0  0  0  0  0
   25.9830   36.6420  101.9640 C   0  0  0  0  0  0  0  0  0  0  0  0
   27.3040   36.3410  102.0430 N   0  0  0  0  0  0  0  0  0  0  0  0
  1  2  1  0
  1  3  1  0
  1  4  2  0
  1  6  1  0
  7  5  1  6
  5  6  1  0
  7  8  1  0
  7  9  1  0
  8 13  1  0
  9 10  1  1
  9 11  1  0
 11 12  1  1
 11 13  1  0
 13 23  1  1
 14 15  2  0
 14 19  1  0
 15 16  1  0
 16 17  2  0
 17 18  1  0
 17 23  1  0
 18 19  2  0
 18 21  1  0
 19 20  1  0
 21 22  2  0
 22 23  1  0
M  END
$$$$

     RDKit          3D

 31 33  0  0  0  0  0  0  0  0999 V2000
   25.1958   39.7698   98.5975 P   0  0  0  0  0  0  0  0  0  0  0  0
   23.2511   37.5007   98.5439 P   0  0  0  0  0  0  0  0  0  0  0  0
   21.7808   37.5231  100.9923 P   0  0  0  0  0  0  0  0  0  0  0  0
   27.7050   39.4635   99.3305 C   0  0  0  0  0  0  0  0  0  0  0  0
   26.3503   38.9970   99.3634 O   0  0  0  0  0  0  0  0  0  0  0  0
   28.6323   38.3297   99.6845 C   0  0  1  0  0  0  0  0  0  0  0  0
   28.4451   37.9731  101.0721 O   0  0  0  0  0  0  0  0  0  0  0  0
   28.3254   37.0582   98.9166 C   0  0  1  0  0  0  0  0  0  0  0  0
   29.0796   37.0411   97.7062 O   0  0  0  0  0  0  0  0  0  0  0  0
   28.7998   35.9537   99.8424 C   0  0  1  0  0  0  0  0  0  0  0  0
   30.1740   35.7248   99.6347 O   0  0  0  0  0  0  0  0  0  0  0  0
   28.5577   36.5733  101.2217 C   0  0  2  0  0  0  0  0  0  0  0  0
   26.8813   33.4468  104.9284 N   0  0  0  0  0  0  0  0  0  0  0  0
   25.8217   40.5195   97.4556 O   0  0  0  0  0  0  0  0  0  0  0  0
   23.9859   36.1787   98.5903 O   0  0  0  0  0  0  0  0  0  0  0  0
   21.5956   38.7377  101.8781 O   0  0  0  0  0  0  0  0  0  0  0  0
   28.0991   33.6880  104.4317 C   0  0  0  0  0  0  0  0  0  0  0  0
   24.3945   40.5185   99.6196 O   0  0  0  0  0  0  0  0  0  0  0  0
   21.9035   37.5810   97.8583 O   0  0  0  0  0  0  0  0  0  0  0  0
   20.7082   37.2630   99.9466 O   0  0  0  0  0  0  0  0  0  0  0  0
   28.4671   34.5268  103.4662 N   0  0  0  0  0  0  0  0  0  0  0  0
   24.2395   38.6384   97.9585 O   0  0  0  0  0  0  0  0  0  0  0  0
   22.9724   37.9879  100.0357 O   0  0  0  0  0  0  0  0  0  0  0  0
   22.4146   36.3119  101.6314 O   0  0  0  0  0  0  0  0  0  0  0  0
   27.4017   35.1726  102.9708 C   0  0  0  0  0  0  0  0  0  0  0  0
   26.0881   35.0390  103.3768 C   0  0  0  0  0  0  0  0  0  0  0  0
   25.8339   34.1251  104.4206 C   0  0  0  0  0  0  0  0  0  0  0  0
   24.6215   33.8975  104.9354 N   0  0  0  0  0  0  0  0  0  0  0  0
   25.2581   35.8663  102.6298 N   0  0  0  0  0  0  0  0  0  0  0  0
   26.0761   36.4692  101.8021 C   0  0  0  0  0  0  0  0  0  0  0  0
   27.3873   36.0958  101.9545 N   0  0  0  0  0  0  0  0  0  0  0  0
  1  5  1  0
  1 14  1  0
  1 18  2  0
  1 22  1  0
  2 15  1  0
  2 19  2  0
  2 22  1  0
  2 23  1  0
  3 16  1  0
  3 20  1  0
  3 23  1  0
  3 24  2  0
  6  4  1  6
  4  5  1  0
  6  7  1  0
  6  8  1  0
  7 12  1  0
  8  9  1  6
  8 10  1  0
 10 11  1  6
 10 12  1  0
 12 31  1  6
 13 17  2  0
 13 27  1  0
 17 21  1  0
 21 25  2  0
 25 26  1  0
 25 31  1  0
 26 27  2  0
 26 29  1  0
 27 28  1  0
 29 30  2  0
 30 31  1  0
M  END
$$$$

     RDKit          3D

 31 33  0  0  0  0  0  0  0  0999 V2000
   25.0646   39.6893   98.8262 P   0  0  0  0  0  0  0  0  0  0  0  0
   22.9752   38.9745  100.8223 P   0  0  0  0  0  0  0  0  0  0  0  0
   20.4881   39.9073   99.5865 P   0  0  0  0  0  0  0  0  0  0  0  0
   27.7036   39.6217   99.3637 C   0  0  0  0  0  0  0  0  0  0  0  0
   26.4682   38.9985   98.8510 O   0  0  0  0  0  0  0  0  0  0  0  0
   28.6480   38.5722   99.7719 C   0  0  1  0  0  0  0  0  0  0  0  0
   28.2744   37.9306  101.0093 O   0  0  0  0  0  0  0  0  0  0  0  0
   28.9665   37.4037   98.8111 C   0  0  1  0  0  0  0  0  0  0  0  0
   30.3685   37.1300   98.8061 O   0  0  0  0  0  0  0  0  0  0  0  0
   28.1293   36.3220   99.4828 C   0  0  1  0  0  0  0  0  0  0  0  0
   28.3032   34.9798   99.0921 O   0  0  0  0  0  0  0  0  0  0  0  0
   28.4166   36.5535  100.9750 C   0  0  2  0  0  0  0  0  0  0  0  0
   27.1672   33.5145  105.1135 N   0  0  0  0  0  0  0  0  0  0  0  0
   24.2071   38.9167   97.9057 O   0  0  0  0  0  0  0  0  0  0  0  0
   22.7800   37.5524  100.4575 O   0  0  0  0  0  0  0  0  0  0  0  0
   20.5669   39.0771   98.3561 O   0  0  0  0  0  0  0  0  0  0  0  0
   28.4460   33.7327  104.5547 C   0  0  0  0  0  0  0  0  0  0  0  0
   25.2376   41.1147   98.5636 O   0  0  0  0  0  0  0  0  0  0  0  0
   22.9299   39.0701  102.2897 O   0  0  0  0  0  0  0  0  0  0  0  0
   20.0106   41.2470   99.2015 O   0  0  0  0  0  0  0  0  0  0  0  0
   28.5812   34.5624  103.4508 N   0  0  0  0  0  0  0  0  0  0  0  0
   24.4242   39.4664  100.3026 O   0  0  0  0  0  0  0  0  0  0  0  0
   21.9494   40.0161  100.2333 O   0  0  0  0  0  0  0  0  0  0  0  0
   19.5966   39.2736  100.5999 O   0  0  0  0  0  0  0  0  0  0  0  0
   27.4531   35.1639  102.9351 C   0  0  0  0  0  0  0  0  0  0  0  0
   26.1535   34.9661  103.4718 C   0  0  0  0  0  0  0  0  0  0  0  0
   25.9949   34.0945  104.6244 C   0  0  0  0  0  0  0  0  0  0  0  0
   24.8365   33.8348  105.2214 N   0  0  0  0  0  0  0  0  0  0  0  0
   25.2190   35.6756  102.7577 N   0  0  0  0  0  0  0  0  0  0  0  0
   25.9563   36.3085  101.7989 C   0  0  0  0  0  0  0  0  0  0  0  0
   27.3124   36.0138  101.8831 N   0  0  0  0  0  0  0  0  0  0  0  0
  1  5  1  0
  1 14  1  0
  1 18  2  0
  1 22  1  0
  2 15  1  0
  2 19  2  0
  2 22  1  0
  2 23  1  0
  3 16  1  0
  3 20  1  0
  3 23  1  0
  3 24  2  0
  6  4  1  6
  4  5  1  0
  6  7  1  0
  6  8  1  0
  7 12  1  0
  8  9  1  1
  8 10  1  0
 10 11  1  6
 10 12  1  0
 12 31  1  1
 13 17  2  0
 13 27  1  0
 17 21  1  0
 21 25  2  0
 25 26  1  0
 25 31  1  0
 26 27  2  0
 26 29  1  0
 27 28  1  0
 29 30  2  0
 30 31  1  0
M  END
$$$$

     RDKit          3D

 31 33  0  0  0  0  0  0  0  0999 V2000
   25.0820   39.7954   98.9962 P   0  0  0  0  0  0  0  0  0  0  0  0
   23.0019   39.0513  100.9693 P   0  0  0  0  0  0  0  0  0  0  0  0
   20.5083   39.9826   99.7461 P   0  0  0  0  0  0  0  0  0  0  0  0
   27.7100   39.5913   99.3401 C   0  0  0  0  0  0  0  0  0  0  0  0
   26.4117   38.9812   99.0065 O   0  0  0  0  0  0  0  0  0  0  0  0
   28.6607   38.5565   99.7667 C   0  0  1  0  0  0  0  0  0  0  0  0
   28.2765   37.9415  101.0088 O   0  0  0  0  0  0  0  0  0  0  0  0
   28.9800   37.3732   98.8221 C   0  0  1  0  0  0  0  0  0  0  0  0
   30.3690   37.0553   98.8706 O   0  0  0  0  0  0  0  0  0  0  0  0
   28.1143   36.3179   99.4878 C   0  0  1  0  0  0  0  0  0  0  0  0
   28.3103   34.9712   99.1386 O   0  0  0  0  0  0  0  0  0  0  0  0
   28.4026   36.5692  100.9731 C   0  0  2  0  0  0  0  0  0  0  0  0
   27.1809   33.5209  105.0655 N   0  0  0  0  0  0  0  0  0  0  0  0
   24.1688   39.1611   98.0364 O   0  0  0  0  0  0  0  0  0  0  0  0
   22.8064   37.6354  100.5720 O   0  0  0  0  0  0  0  0  0  0  0  0
   20.6034   39.1265   98.5390 O   0  0  0  0  0  0  0  0  0  0  0  0
   28.4600   33.7614  104.5219 C   0  0  0  0  0  0  0  0  0  0  0  0
   25.3879   41.2280   98.8041 O   0  0  0  0  0  0  0  0  0  0  0  0
   22.9870   39.1175  102.4288 O   0  0  0  0  0  0  0  0  0  0  0  0
   20.0321   41.3203   99.3503 O   0  0  0  0  0  0  0  0  0  0  0  0
   28.5876   34.6073  103.4281 N   0  0  0  0  0  0  0  0  0  0  0  0
   24.4463   39.5657  100.4629 O   0  0  0  0  0  0  0  0  0  0  0  0
   21.9701   40.1051  100.3878 O   0  0  0  0  0  0  0  0  0  0  0  0
   19.6311   39.3537  100.7530 O   0  0  0  0  0  0  0  0  0  0  0  0
   27.4562   35.1910  102.9145 C   0  0  0  0  0  0  0  0  0  0  0  0
   26.1592   34.9737  103.4405 C   0  0  0  0  0  0  0  0  0  0  0  0
   26.0075   34.0899  104.5763 C   0  0  0  0  0  0  0  0  0  0  0  0
   24.8511   33.8114  105.1590 N   0  0  0  0  0  0  0  0  0  0  0  0
   25.2180   35.6816  102.7351 N   0  0  0  0  0  0  0  0  0  0  0  0
   25.9508   36.3239  101.7849 C   0  0  0  0  0  0  0  0  0  0  0  0
   27.3066   36.0368  101.8718 N   0  0  0  0  0  0  0  0  0  0  0  0
  1  5  1  0
  1 14  1  0
  1 18  2  0
  1 22  1  0
  2 15  1  0
  2 19  2  0
  2 22  1  0
  2 23  1  0
  3 16  1  0
  3 20  1  0
  3 23  1  0
  3 24  2  0
  6  4  1  6
  4  5  1  0
  6  7  1  0
  6  8  1  0
  7 12  1  0
  8  9  1  1
  8 10  1  0
 10 11  1  6
 10 12  1  0
 12 31  1  1
 13 17  2  0
 13 27  1  0
 17 21  1  0
 21 25  2  0
 25 26  1  0
 25 31  1  0
 26 27  2  0
 26 29  1  0
 27 28  1  0
 29 30  2  0
 30 31  1  0
M  END
$$$$

     RDKit          3D

 31 33  0  0  0  0  0  0  0  0999 V2000
   24.7784   39.5276   98.7510 P   0  0  0  0  0  0  0  0  0  0  0  0
   23.1785   37.0242   98.8818 P   0  0  0  0  0  0  0  0  0  0  0  0
   21.3042   38.6799  100.3355 P   0  0  0  0  0  0  0  0  0  0  0  0
   27.2522   38.6922   99.2350 C   0  0  0  0  0  0  0  0  0  0  0  0
   26.1413   39.2879   99.2409 O   0  0  0  0  0  0  0  0  0  0  0  0
   28.6264   38.4498   99.6992 C   0  0  1  0  0  0  0  0  0  0  0  0
   28.4611   38.0408  101.0990 O   0  0  0  0  0  0  0  0  0  0  0  0
   28.8707   37.3084   98.7793 C   0  0  1  0  0  0  0  0  0  0  0  0
   30.1344   37.3324   98.1249 O   0  0  0  0  0  0  0  0  0  0  0  0
   28.5573   36.0597   99.6758 C   0  0  1  0  0  0  0  0  0  0  0  0
   29.5667   35.0623   99.5251 O   0  0  0  0  0  0  0  0  0  0  0  0
   28.4682   36.5782  101.1644 C   0  0  2  0  0  0  0  0  0  0  0  0
   26.9915   33.3758  104.8731 N   0  0  0  0  0  0  0  0  0  0  0  0
   24.7899   40.5201   99.8228 O   0  0  0  0  0  0  0  0  0  0  0  0
   23.6523   36.7583   97.5375 O   0  0  0  0  0  0  0  0  0  0  0  0
   20.4993   39.8718   99.9644 O   0  0  0  0  0  0  0  0  0  0  0  0
   28.2019   33.5444  104.2683 C   0  0  0  0  0  0  0  0  0  0  0  0
   24.9925   39.9065   97.3473 O   0  0  0  0  0  0  0  0  0  0  0  0
   23.4586   36.1239  100.0007 O   0  0  0  0  0  0  0  0  0  0  0  0
   22.3064   38.8741  101.4171 O   0  0  0  0  0  0  0  0  0  0  0  0
   28.4851   34.4246  103.2877 N   0  0  0  0  0  0  0  0  0  0  0  0
   24.4866   38.0338   99.0634 O   0  0  0  0  0  0  0  0  0  0  0  0
   22.1699   38.2157   99.0934 O   0  0  0  0  0  0  0  0  0  0  0  0
   20.3966   37.5570  100.6209 O   0  0  0  0  0  0  0  0  0  0  0  0
   27.3448   35.2145  102.9306 C   0  0  0  0  0  0  0  0  0  0  0  0
   26.0782   35.1338  103.4687 C   0  0  0  0  0  0  0  0  0  0  0  0
   25.9056   34.1737  104.4830 C   0  0  0  0  0  0  0  0  0  0  0  0
   24.7222   34.0153  105.0527 N   0  0  0  0  0  0  0  0  0  0  0  0
   25.2179   36.0483  102.8895 N   0  0  0  0  0  0  0  0  0  0  0  0
   25.9702   36.6418  102.0201 C   0  0  0  0  0  0  0  0  0  0  0  0
   27.2885   36.1756  101.9885 N   0  0  0  0  0  0  0  0  0  0  0  0
  1  5  1  0
  1 14  1  0
  1 18  2  0
  1 22  1  0
  2 15  1  0
  2 19  2  0
  2 22  1  0
  2 23  1  0
  3 16  1  0
  3 20  1  0
  3 23  1  0
  3 24  2  0
  6  4  1  6
  4  5  1  0
  6  7  1  0
  6  8  1  0
  7 12  1  0
  8  9  1  1
  8 10  1  0
 10 11  1  1
 10 12  1  0
 12 31  1  6
 13 17  2  0
 13 27  1  0
 17 21  1  0
 21 25  2  0
 25 26  1  0
 25 31  1  0
 26 27  2  0
 26 29  1  0
 27 28  1  0
 29 30  2  0
 30 31  1  0
M  END
$$$$

     RDKit          3D

 35 38  0  0  0  0  0  0  0  0999 V2000
   28.6445   38.4040   92.4983 N   0  0  0  0  0  0  0  0  0  0  0  0
   28.9678   38.7789   93.8831 C   0  0  2  0  0  0  0  0  0  0  0  0
   27.7088   38.6698   94.7395 C   0  0  0  0  0  0  0  0  0  0  0  0
   26.6777   38.1710   94.2857 O   0  0  0  0  0  0  0  0  0  0  0  0
   27.8281   39.1694   95.9682 N   0  0  0  0  0  0  0  0  0  0  0  0
   26.1820   37.7379   97.3245 O   0  0  0  0  0  0  0  0  0  0  0  0
   25.4362   39.9066   96.4560 O   0  0  0  0  0  0  0  0  0  0  0  0
   29.4741   40.2239   93.9284 C   0  0  0  0  0  0  0  0  0  0  0  0
   26.5968   39.1513   97.0333 S   0  0  2  0  0  0  0  0  0  0  0  0
   30.7991   40.4051   93.1853 C   0  0  0  0  0  0  0  0  0  0  0  0
   30.8484   41.1770   92.0297 C   0  0  0  0  0  0  0  0  0  0  0  0
   31.9599   39.8132   93.6766 C   0  0  0  0  0  0  0  0  0  0  0  0
   32.0584   41.3602   91.3658 C   0  0  0  0  0  0  0  0  0  0  0  0
   33.1698   39.9975   93.0136 C   0  0  0  0  0  0  0  0  0  0  0  0
   33.2199   40.7717   91.8597 C   0  0  0  0  0  0  0  0  0  0  0  0
   34.4038   40.9493   91.2133 O   0  0  0  0  0  0  0  0  0  0  0  0
   27.1179   39.1253   99.5455 C   0  0  0  0  0  0  0  0  0  0  0  0
   27.0473   39.8217   98.2985 O   0  0  0  0  0  0  0  0  0  0  0  0
   28.4963   38.5127   99.8114 C   0  0  1  0  0  0  0  0  0  0  0  0
   28.4951   37.9249  101.1254 O   0  0  0  0  0  0  0  0  0  0  0  0
   28.8247   37.3571   98.8629 C   0  0  1  0  0  0  0  0  0  0  0  0
   30.2174   37.0414   98.9333 O   0  0  0  0  0  0  0  0  0  0  0  0
   28.0076   36.2455   99.5186 C   0  0  1  0  0  0  0  0  0  0  0  0
   28.5378   34.9805   99.1150 O   0  0  0  0  0  0  0  0  0  0  0  0
   28.3394   36.4999  100.9907 C   0  0  2  0  0  0  0  0  0  0  0  0
   27.2269   33.5568  105.0806 N   0  0  0  0  0  0  0  0  0  0  0  0
   28.4038   33.7749  104.5180 C   0  0  0  0  0  0  0  0  0  0  0  0
   28.5186   34.5567  103.4573 N   0  0  0  0  0  0  0  0  0  0  0  0
   27.4459   35.1558  102.9177 C   0  0  0  0  0  0  0  0  0  0  0  0
   26.1949   34.9479  103.4850 C   0  0  0  0  0  0  0  0  0  0  0  0
   26.1085   34.1170  104.5979 C   0  0  0  0  0  0  0  0  0  0  0  0
   24.9347   33.8837  105.1779 N   0  0  0  0  0  0  0  0  0  0  0  0
   25.3167   35.6550  102.7839 N   0  0  0  0  0  0  0  0  0  0  0  0
   25.9835   36.2860  101.8214 C   0  0  0  0  0  0  0  0  0  0  0  0
   27.2797   35.9848  101.8901 N   0  0  0  0  0  0  0  0  0  0  0  0
  2  1  1  6
  2  3  1  0
  2  8  1  0
  3  4  1  0
  3  5  2  3
  5  9  1  0
  6  9  2  0
  7  9  2  0
  8 10  1  0
  9 18  1  1
 10 11  2  0
 10 12  1  0
 11 13  1  0
 12 14  2  0
 13 15  2  0
 14 15  1  0
 15 16  1  0
 19 17  1  6
 17 18  1  0
 19 20  1  0
 19 21  1  0
 20 25  1  0
 21 22  1  1
 21 23  1  0
 23 24  1  6
 23 25  1  0
 25 35  1  1
 26 31  2  0
 26 27  1  0
 27 28  2  0
 28 29  1  0
 29 30  2  0
 29 35  1  0
 30 31  1  0
 30 33  1  0
 31 32  1  0
 33 34  2  0
 34 35  1  0
M  END
$$$$

     RDKit          3D

 35 38  0  0  0  0  0  0  0  0999 V2000
   28.0318   38.7764   92.7598 N   0  0  0  0  0  0  0  0  0  0  0  0
   28.4249   39.0364   94.1517 C   0  0  2  0  0  0  0  0  0  0  0  0
   27.1861   38.9458   95.0436 C   0  0  0  0  0  0  0  0  0  0  0  0
   26.1132   38.5552   94.5883 O   0  0  0  0  0  0  0  0  0  0  0  0
   27.3783   39.3321   96.3033 N   0  0  0  0  0  0  0  0  0  0  0  0
   25.6683   37.9223   97.5929 O   0  0  0  0  0  0  0  0  0  0  0  0
   25.0829   40.2370   97.0209 O   0  0  0  0  0  0  0  0  0  0  0  0
   29.0259   40.4393   94.2781 C   0  0  0  0  0  0  0  0  0  0  0  0
   26.1955   39.3170   97.4263 S   0  0  2  0  0  0  0  0  0  0  0  0
   30.2944   40.6355   93.4444 C   0  0  0  0  0  0  0  0  0  0  0  0
   30.2693   41.4783   92.3370 C   0  0  0  0  0  0  0  0  0  0  0  0
   31.4879   40.0252   93.8224 C   0  0  0  0  0  0  0  0  0  0  0  0
   31.4340   41.7146   91.6129 C   0  0  0  0  0  0  0  0  0  0  0  0
   32.6528   40.2595   93.0977 C   0  0  0  0  0  0  0  0  0  0  0  0
   32.6270   41.1088   91.9932 C   0  0  0  0  0  0  0  0  0  0  0  0
   33.7729   41.3663   91.3078 O   0  0  0  0  0  0  0  0  0  0  0  0
   27.0256   38.9327   99.8104 C   0  0  0  0  0  0  0  0  0  0  0  0
   26.7679   39.8164   98.7186 O   0  0  0  0  0  0  0  0  0  0  0  0
   28.4811   38.4585   99.8482 C   0  0  1  0  0  0  0  0  0  0  0  0
   28.7185   37.8157  101.1115 O   0  0  0  0  0  0  0  0  0  0  0  0
   28.8005   37.3758   98.8167 C   0  0  1  0  0  0  0  0  0  0  0  0
   30.2136   37.1545   98.7680 O   0  0  0  0  0  0  0  0  0  0  0  0
   28.0946   36.1899   99.4764 C   0  0  1  0  0  0  0  0  0  0  0  0
   28.6745   34.9523   99.0575 O   0  0  0  0  0  0  0  0  0  0  0  0
   28.4389   36.4121  100.9506 C   0  0  2  0  0  0  0  0  0  0  0  0
   27.1349   33.6780  105.1102 N   0  0  0  0  0  0  0  0  0  0  0  0
   28.3381   33.8779  104.5987 C   0  0  0  0  0  0  0  0  0  0  0  0
   28.5018   34.6194  103.5155 N   0  0  0  0  0  0  0  0  0  0  0  0
   27.4543   35.1872  102.8991 C   0  0  0  0  0  0  0  0  0  0  0  0
   26.1774   34.9962  103.4088 C   0  0  0  0  0  0  0  0  0  0  0  0
   26.0416   34.2168  104.5504 C   0  0  0  0  0  0  0  0  0  0  0  0
   24.8430   34.0258  105.0933 N   0  0  0  0  0  0  0  0  0  0  0  0
   25.3307   35.6595  102.6266 N   0  0  0  0  0  0  0  0  0  0  0  0
   26.0386   36.2425  101.6635 C   0  0  0  0  0  0  0  0  0  0  0  0
   27.3296   35.9587  101.8222 N   0  0  0  0  0  0  0  0  0  0  0  0
  2  1  1  6
  2  3  1  0
  2  8  1  0
  3  4  1  0
  3  5  2  3
  5  9  1  0
  6  9  2  0
  7  9  2  0
  8 10  1  0
  9 18  1  1
 10 11  2  0
 10 12  1  0
 11 13  1  0
 12 14  2  0
 13 15  2  0
 14 15  1  0
 15 16  1  0
 19 17  1  1
 17 18  1  0
 19 20  1  0
 19 21  1  0
 20 25  1  0
 21 22  1  1
 21 23  1  0
 23 24  1  6
 23 25  1  0
 25 35  1  1
 26 31  2  0
 26 27  1  0
 27 28  2  0
 28 29  1  0
 29 30  2  0
 29 35  1  0
 30 31  1  0
 30 33  1  0
 31 32  1  0
 33 34  2  0
 34 35  1  0
M  END
$$$$

     RDKit          3D

 35 38  0  0  0  0  0  0  0  0999 V2000
   27.0133   38.5484   92.9885 N   0  0  0  0  0  0  0  0  0  0  0  0
   27.3731   39.2722   94.2458 C   0  0  2  0  0  0  0  0  0  0  0  0
   26.3716   38.9758   95.3366 C   0  0  0  0  0  0  0  0  0  0  0  0
   25.4908   38.1527   95.1547 O   0  0  0  0  0  0  0  0  0  0  0  0
   27.4503   40.7772   93.9776 C   0  0  0  0  0  0  0  0  0  0  0  0
   28.5803   41.1361   93.0400 C   0  0  0  0  0  0  0  0  0  0  0  0
   29.8846   40.7140   93.3070 C   0  0  0  0  0  0  0  0  0  0  0  0
   28.3206   41.8971   91.8963 C   0  0  0  0  0  0  0  0  0  0  0  0
   30.9199   41.0572   92.4438 C   0  0  0  0  0  0  0  0  0  0  0  0
   29.3569   42.2444   91.0292 C   0  0  0  0  0  0  0  0  0  0  0  0
   30.6589   41.8191   91.3041 C   0  0  0  0  0  0  0  0  0  0  0  0
   31.6579   42.1313   90.4847 O   0  0  0  0  0  0  0  0  0  0  0  0
   25.5711   39.5950   97.8476 P   0  0  0  0  0  0  0  0  0  0  0  0
   24.4177   38.6467   97.7369 O   0  0  0  0  0  0  0  0  0  0  0  0
   25.2562   41.0132   98.2337 O   0  0  0  0  0  0  0  0  0  0  0  0
   26.5309   39.6594   96.4736 N   0  0  0  0  0  0  0  0  0  0  0  0
   27.7571   39.5693   99.3373 C   0  0  0  0  0  0  0  0  0  0  0  0
   26.5077   38.9726   98.9992 O   0  0  0  0  0  0  0  0  0  0  0  0
   28.7544   38.4886   99.7379 C   0  0  1  0  0  0  0  0  0  0  0  0
   28.5414   38.0828  101.0986 O   0  0  0  0  0  0  0  0  0  0  0  0
   28.6501   37.2726   98.8329 C   0  0  1  0  0  0  0  0  0  0  0  0
   29.9703   37.0547   98.3605 O   0  0  0  0  0  0  0  0  0  0  0  0
   28.2694   36.1202   99.7330 C   0  0  1  0  0  0  0  0  0  0  0  0
   28.9785   34.9101   99.5337 O   0  0  0  0  0  0  0  0  0  0  0  0
   28.3308   36.6704  101.1550 C   0  0  2  0  0  0  0  0  0  0  0  0
   27.1784   33.4448  104.9077 N   0  0  0  0  0  0  0  0  0  0  0  0
   28.5129   33.7346  104.3887 C   0  0  0  0  0  0  0  0  0  0  0  0
   28.4679   34.7185  103.3221 N   0  0  0  0  0  0  0  0  0  0  0  0
   27.2974   35.2687  102.8984 C   0  0  0  0  0  0  0  0  0  0  0  0
   26.0810   34.9572  103.4214 C   0  0  0  0  0  0  0  0  0  0  0  0
   26.0212   33.9700  104.5138 C   0  0  0  0  0  0  0  0  0  0  0  0
   24.8702   33.6286  105.0755 N   0  0  0  0  0  0  0  0  0  0  0  0
   25.1843   35.7031  102.7466 N   0  0  0  0  0  0  0  0  0  0  0  0
   25.8719   36.4377  101.8286 C   0  0  0  0  0  0  0  0  0  0  0  0
   27.1874   36.1681  101.9377 N   0  0  0  0  0  0  0  0  0  0  0  0
  2  1  1  6
  2  3  1  0
  2  5  1  0
  3  4  1  0
  3 16  2  3
  5  6  1  0
  6  7  2  0
  6  8  1  0
  7  9  1  0
  8 10  2  0
  9 11  2  0
 10 11  1  0
 11 12  1  0
 13 14  1  0
 13 15  2  0
 13 18  1  0
 13 16  1  0
 19 17  1  6
 17 18  1  0
 19 20  1  0
 19 21  1  0
 20 25  1  0
 21 22  1  1
 21 23  1  0
 23 24  1  1
 23 25  1  0
 25 35  1  6
 26 27  2  0
 26 31  1  0
 27 28  1  0
 28 29  2  0
 29 30  1  0
 29 35  1  0
 30 31  2  0
 30 33  1  0
 31 32  1  0
 33 34  2  0
 34 35  1  0
M  END
$$$$

     RDKit          3D

 35 38  0  0  0  0  0  0  0  0999 V2000
   27.3472   38.9181   93.3673 N   0  0  0  0  0  0  0  0  0  0  0  0
   27.7235   39.4448   94.6873 C   0  0  2  0  0  0  0  0  0  0  0  0
   26.5599   39.3155   95.6756 C   0  0  0  0  0  0  0  0  0  0  0  0
   25.4045   39.2724   95.2563 O   0  0  0  0  0  0  0  0  0  0  0  0
   26.8690   39.2710   96.9700 N   0  0  0  0  0  0  0  0  0  0  0  0
   24.5247   38.7301   98.2023 O   0  0  0  0  0  0  0  0  0  0  0  0
   25.3523   41.1739   97.9898 O   0  0  0  0  0  0  0  0  0  0  0  0
   28.0773   40.9292   94.5823 C   0  0  0  0  0  0  0  0  0  0  0  0
   25.6374   39.7016   97.9540 S   0  0  2  0  0  0  0  0  0  0  0  0
   29.1793   41.2255   93.5611 C   0  0  0  0  0  0  0  0  0  0  0  0
   28.9652   42.2319   92.6258 C   0  0  0  0  0  0  0  0  0  0  0  0
   30.4023   40.5647   93.6079 C   0  0  0  0  0  0  0  0  0  0  0  0
   29.9780   42.5894   91.7412 C   0  0  0  0  0  0  0  0  0  0  0  0
   31.4170   40.9248   92.7281 C   0  0  0  0  0  0  0  0  0  0  0  0
   31.2044   41.9378   91.7982 C   0  0  0  0  0  0  0  0  0  0  0  0
   32.1963   42.3153   90.9471 O   0  0  0  0  0  0  0  0  0  0  0  0
   26.9080   38.3577   99.5272 C   0  0  0  0  0  0  0  0  0  0  0  0
   26.3282   39.6139   99.1982 O   0  0  0  0  0  0  0  0  0  0  0  0
   28.4252   38.4557   99.6821 C   0  0  1  0  0  0  0  0  0  0  0  0
   28.7103   38.0247  101.0219 O   0  0  0  0  0  0  0  0  0  0  0  0
   28.9327   37.2980   98.8226 C   0  0  1  0  0  0  0  0  0  0  0  0
   30.3553   37.1909   98.9210 O   0  0  0  0  0  0  0  0  0  0  0  0
   28.2206   36.1865   99.5919 C   0  0  1  0  0  0  0  0  0  0  0  0
   28.8014   34.9138   99.2968 O   0  0  0  0  0  0  0  0  0  0  0  0
   28.5267   36.5980  101.0346 C   0  0  2  0  0  0  0  0  0  0  0  0
   27.0411   33.4949  104.8641 N   0  0  0  0  0  0  0  0  0  0  0  0
   28.2525   33.6882  104.3720 C   0  0  0  0  0  0  0  0  0  0  0  0
   28.4816   34.5539  103.4002 N   0  0  0  0  0  0  0  0  0  0  0  0
   27.4748   35.2719  102.8800 C   0  0  0  0  0  0  0  0  0  0  0  0
   26.1905   35.1002  103.3754 C   0  0  0  0  0  0  0  0  0  0  0  0
   25.9884   34.1786  104.3954 C   0  0  0  0  0  0  0  0  0  0  0  0
   24.7712   33.9664  104.8882 N   0  0  0  0  0  0  0  0  0  0  0  0
   25.3871   35.9026  102.6813 N   0  0  0  0  0  0  0  0  0  0  0  0
   26.1327   36.5483  101.7883 C   0  0  0  0  0  0  0  0  0  0  0  0
   27.4048   36.1664  101.8999 N   0  0  0  0  0  0  0  0  0  0  0  0
  2  1  1  6
  2  3  1  0
  2  8  1  0
  3  4  1  0
  3  5  2  3
  5  9  1  0
  6  9  2  0
  7  9  2  0
  8 10  1  0
  9 18  1  1
 10 11  2  0
 10 12  1  0
 11 13  1  0
 12 14  2  0
 13 15  2  0
 14 15  1  0
 15 16  1  0
 19 17  1  1
 17 18  1  0
 19 20  1  0
 19 21  1  0
 20 25  1  0
 21 22  1  1
 21 23  1  0
 23 24  1  6
 23 25  1  0
 25 35  1  1
 26 31  2  0
 26 27  1  0
 27 28  2  0
 28 29  1  0
 29 30  2  0
 29 35  1  0
 30 31  1  0
 30 33  1  0
 31 32  1  0
 33 34  2  0
 34 35  1  0
M  END
$$$$

     RDKit          3D

 34 37  0  0  0  0  0  0  0  0999 V2000
   28.1885   38.9089   94.2834 C   0  0  2  0  0  0  0  0  0  0  0  0
   27.5690   38.3966   95.5549 C   0  0  0  0  0  0  0  0  0  0  0  0
   28.5671   40.3854   94.3449 C   0  0  0  0  0  0  0  0  0  0  0  0
   29.6101   40.6945   93.4520 C   0  0  0  0  0  0  0  0  0  0  0  0
   30.8268   40.0431   93.5847 C   0  0  0  0  0  0  0  0  0  0  0  0
   29.4552   41.6544   92.4288 C   0  0  0  0  0  0  0  0  0  0  0  0
   31.8900   40.3448   92.7296 C   0  0  0  0  0  0  0  0  0  0  0  0
   30.5081   41.9214   91.5453 C   0  0  0  0  0  0  0  0  0  0  0  0
   31.7283   41.2762   91.7055 C   0  0  0  0  0  0  0  0  0  0  0  0
   27.2300   38.6980   93.1720 N   0  0  0  0  0  0  0  0  0  0  0  0
   32.7947   41.4987   90.9036 O   0  0  0  0  0  0  0  0  0  0  0  0
   25.9652   39.3172   97.2690 P   0  0  0  0  0  0  0  0  0  0  0  0
   25.3181   40.6172   97.5462 O   0  0  0  0  0  0  0  0  0  0  0  0
   24.9285   38.5529   97.9683 O   0  0  0  0  0  0  0  0  0  0  0  0
   27.4092   39.3624   99.4311 C   0  0  0  0  0  0  0  0  0  0  0  0
   27.3376   39.2204   98.0220 O   0  0  0  0  0  0  0  0  0  0  0  0
   28.6569   38.5400   99.8575 C   0  0  1  0  0  0  0  0  0  0  0  0
   28.2547   38.0238  101.1615 O   0  0  0  0  0  0  0  0  0  0  0  0
   28.9316   37.3069   98.9894 C   0  0  1  0  0  0  0  0  0  0  0  0
   30.2491   36.8257   99.0476 O   0  0  0  0  0  0  0  0  0  0  0  0
   28.0008   36.2317   99.5729 C   0  0  1  0  0  0  0  0  0  0  0  0
   28.5988   34.9249   99.4019 O   0  0  0  0  0  0  0  0  0  0  0  0
   27.9616   36.6757  100.9959 C   0  0  2  0  0  0  0  0  0  0  0  0
   27.4687   33.4122  104.8135 N   0  0  0  0  0  0  0  0  0  0  0  0
   28.5260   33.7782  104.0317 C   0  0  0  0  0  0  0  0  0  0  0  0
   28.5473   34.6369  103.0747 N   0  0  0  0  0  0  0  0  0  0  0  0
   27.3290   35.2141  102.8912 C   0  0  0  0  0  0  0  0  0  0  0  0
   26.1838   34.9604  103.5858 C   0  0  0  0  0  0  0  0  0  0  0  0
   26.2599   34.0174  104.6422 C   0  0  0  0  0  0  0  0  0  0  0  0
   25.2483   33.6615  105.4366 N   0  0  0  0  0  0  0  0  0  0  0  0
   25.1485   35.7760  103.1517 N   0  0  0  0  0  0  0  0  0  0  0  0
   25.6987   36.4649  102.1469 C   0  0  0  0  0  0  0  0  0  0  0  0
   26.9997   36.1724  101.9354 N   0  0  0  0  0  0  0  0  0  0  0  0
   26.2413   38.9079   95.7974 O   0  0  0  0  0  0  0  0  0  0  0  0
  1  2  1  0
  1  3  1  0
  1 10  1  6
  2 34  1  0
  3  4  1  0
  4  5  2  0
  4  6  1  0
  5  7  1  0
  6  8  2  0
  7  9  2  0
  8  9  1  0
  9 11  1  0
 12 13  1  0
 12 14  2  0
 12 16  1  0
 12 34  1  0
 17 15  1  6
 15 16  1  0
 17 18  1  0
 17 19  1  0
 18 23  1  0
 19 20  1  1
 19 21  1  0
 21 22  1  1
 21 23  1  0
 23 33  1  6
 24 25  2  0
 24 29  1  0
 25 26  1  0
 26 27  2  0
 27 28  1  0
 27 33  1  0
 28 29  2  0
 28 31  1  0
 29 30  1  0
 31 32  2  0
 32 33  1  0
M  CHG  1  11  -1
M  END
$$$$

     RDKit          3D

 34 37  0  0  0  0  0  0  0  0999 V2000
   27.5518   38.9949   94.8520 C   0  0  2  0  0  0  0  0  0  0  0  0
   26.1564   38.6322   95.3500 C   0  0  0  0  0  0  0  0  0  0  0  0
   27.8119   40.4941   94.8435 C   0  0  0  0  0  0  0  0  0  0  0  0
   28.8593   40.9452   93.7781 C   0  0  0  0  0  0  0  0  0  0  0  0
   28.5770   42.0005   92.9349 C   0  0  0  0  0  0  0  0  0  0  0  0
   30.0843   40.2742   93.6617 C   0  0  0  0  0  0  0  0  0  0  0  0
   29.5166   42.3842   91.9897 C   0  0  0  0  0  0  0  0  0  0  0  0
   31.0185   40.6633   92.7250 C   0  0  0  0  0  0  0  0  0  0  0  0
   30.7279   41.7237   91.8783 C   0  0  0  0  0  0  0  0  0  0  0  0
   27.6956   38.4555   93.4960 N   0  0  0  0  0  0  0  0  0  0  0  0
   31.6269   42.1263   90.9388 O   0  0  0  0  0  0  0  0  0  0  0  0
   25.5913   39.0683   97.7191 P   0  0  0  0  0  0  0  0  0  0  0  0
   24.7176   38.2392   98.7894 O   0  0  0  0  0  0  0  0  0  0  0  0
   24.8069   40.2862   97.2126 O   0  0  0  0  0  0  0  0  0  0  0  0
   27.2481   39.2280   99.7322 C   0  0  0  0  0  0  0  0  0  0  0  0
   26.9792   39.4920   98.3667 O   0  0  0  0  0  0  0  0  0  0  0  0
   28.5459   38.4904   99.9095 C   0  0  1  0  0  0  0  0  0  0  0  0
   28.5173   37.8035  101.1811 O   0  0  0  0  0  0  0  0  0  0  0  0
   28.8137   37.4144   98.8774 C   0  0  1  0  0  0  0  0  0  0  0  0
   30.2155   37.1464   98.8369 O   0  0  0  0  0  0  0  0  0  0  0  0
   28.0760   36.2182   99.4748 C   0  0  1  0  0  0  0  0  0  0  0  0
   28.5213   34.9570   99.0215 O   0  0  0  0  0  0  0  0  0  0  0  0
   28.3269   36.4094  100.9730 C   0  0  2  0  0  0  0  0  0  0  0  0
   27.2440   33.6174  105.1003 N   0  0  0  0  0  0  0  0  0  0  0  0
   28.4236   33.8333  104.4944 C   0  0  0  0  0  0  0  0  0  0  0  0
   28.5398   34.6092  103.3945 N   0  0  0  0  0  0  0  0  0  0  0  0
   27.4256   35.1853  102.8988 C   0  0  0  0  0  0  0  0  0  0  0  0
   26.1762   34.9949  103.5004 C   0  0  0  0  0  0  0  0  0  0  0  0
   26.1122   34.1803  104.6427 C   0  0  0  0  0  0  0  0  0  0  0  0
   24.8771   33.9541  105.2916 N   0  0  0  0  0  0  0  0  0  0  0  0
   25.2596   35.6924  102.7650 N   0  0  0  0  0  0  0  0  0  0  0  0
   25.9149   36.2988  101.7561 C   0  0  0  0  0  0  0  0  0  0  0  0
   27.2221   35.9730  101.8278 N   0  0  0  0  0  0  0  0  0  0  0  0
   26.0282   38.1109   96.5367 O   0  0  0  0  0  0  0  0  0  0  0  0
  1  2  1  0
  1  3  1  0
  1 10  1  6
  2 34  1  0
  3  4  1  0
  4  5  2  0
  4  6  1  0
  5  7  1  0
  6  8  2  0
  7  9  2  0
  8  9  1  0
  9 11  1  0
 12 13  1  0
 12 14  2  0
 12 16  1  0
 12 34  1  0
 17 15  1  6
 15 16  1  0
 17 18  1  0
 17 19  1  0
 18 23  1  0
 19 20  1  1
 19 21  1  0
 21 22  1  6
 21 23  1  0
 23 33  1  1
 24 25  2  0
 24 29  1  0
 25 26  1  0
 26 27  2  0
 27 28  1  0
 27 33  1  0
 28 29  2  0
 28 31  1  0
 29 30  1  0
 31 32  2  0
 32 33  1  0
M  CHG  1  11  -1
M  END
$$$$

     RDKit          3D

 35 38  0  0  0  0  0  0  0  0999 V2000
   27.7644   38.4658   93.0248 N   0  0  0  0  0  0  0  0  0  0  0  0
   28.0485   38.9503   94.3803 C   0  0  2  0  0  0  0  0  0  0  0  0
   26.7354   38.9858   95.1386 C   0  0  0  0  0  0  0  0  0  0  0  0
   25.6370   39.1044   94.5960 O   0  0  0  0  0  0  0  0  0  0  0  0
   26.8430   38.8863   96.5082 N   0  0  0  0  0  0  0  0  0  0  0  0
   24.6506   38.6631   97.5228 O   0  0  0  0  0  0  0  0  0  0  0  0
   25.7596   40.8678   97.6089 O   0  0  0  0  0  0  0  0  0  0  0  0
   28.5553   40.3924   94.3665 C   0  0  0  0  0  0  0  0  0  0  0  0
   25.8257   39.4523   97.6020 S   0  0  2  0  0  0  0  0  0  0  0  0
   29.7588   40.6135   93.4856 C   0  0  0  0  0  0  0  0  0  0  0  0
   30.9447   39.9153   93.7001 C   0  0  0  0  0  0  0  0  0  0  0  0
   29.7079   41.5269   92.4400 C   0  0  0  0  0  0  0  0  0  0  0  0
   32.0575   40.1388   92.9046 C   0  0  0  0  0  0  0  0  0  0  0  0
   30.7996   41.7265   91.6152 C   0  0  0  0  0  0  0  0  0  0  0  0
   31.9788   41.0325   91.8461 C   0  0  0  0  0  0  0  0  0  0  0  0
   33.0332   41.2054   91.0063 O   0  0  0  0  0  0  0  0  0  0  0  0
   27.8651   39.6255   99.2209 C   0  0  0  0  0  0  0  0  0  0  0  0
   26.5532   39.0253   98.9521 O   0  0  0  0  0  0  0  0  0  0  0  0
   28.7457   38.5342   99.7819 C   0  0  1  0  0  0  0  0  0  0  0  0
   28.1961   38.0465  101.0286 O   0  0  0  0  0  0  0  0  0  0  0  0
   28.9276   37.3041   98.8848 C   0  0  1  0  0  0  0  0  0  0  0  0
   30.2939   36.8962   98.8910 O   0  0  0  0  0  0  0  0  0  0  0  0
   28.0181   36.2722   99.5415 C   0  0  1  0  0  0  0  0  0  0  0  0
   28.4072   34.9314   99.3177 O   0  0  0  0  0  0  0  0  0  0  0  0
   28.2272   36.6352  101.0019 C   0  0  2  0  0  0  0  0  0  0  0  0
   27.2944   33.4694  104.9420 N   0  0  0  0  0  0  0  0  0  0  0  0
   28.4323   33.8460  104.3451 C   0  0  0  0  0  0  0  0  0  0  0  0
   28.6023   34.7185  103.3449 N   0  0  0  0  0  0  0  0  0  0  0  0
   27.4308   35.2210  102.9363 C   0  0  0  0  0  0  0  0  0  0  0  0
   26.1761   34.9317  103.4570 C   0  0  0  0  0  0  0  0  0  0  0  0
   26.1259   33.9969  104.5104 C   0  0  0  0  0  0  0  0  0  0  0  0
   24.9837   33.5543  105.0557 N   0  0  0  0  0  0  0  0  0  0  0  0
   25.1923   35.6476  102.7925 N   0  0  0  0  0  0  0  0  0  0  0  0
   25.8592   36.3303  101.8911 C   0  0  0  0  0  0  0  0  0  0  0  0
   27.2145   36.1118  101.9132 N   0  0  0  0  0  0  0  0  0  0  0  0
  2  1  1  6
  2  3  1  0
  2  8  1  0
  3  4  1  0
  3  5  2  3
  5  9  1  0
  6  9  2  0
  7  9  2  0
  8 10  1  0
  9 18  1  1
 10 11  2  0
 10 12  1  0
 11 13  1  0
 12 14  2  0
 13 15  2  0
 14 15  1  0
 15 16  1  0
 19 17  1  6
 17 18  1  0
 19 20  1  0
 19 21  1  0
 20 25  1  0
 21 22  1  1
 21 23  1  0
 23 24  1  1
 23 25  1  0
 25 35  1  1
 26 31  2  0
 26 27  1  0
 27 28  2  0
 28 29  1  0
 29 30  2  0
 29 35  1  0
 30 31  1  0
 30 33  1  0
 31 32  1  0
 33 34  2  0
 34 35  1  0
M  END
$$$$

     RDKit          3D

 37 40  0  0  0  0  0  0  0  0999 V2000
   26.8013   38.7437   93.0176 N   0  0  0  0  0  0  0  0  0  0  0  0
   27.2482   39.1205   94.3716 C   0  0  2  0  0  0  0  0  0  0  0  0
   26.0713   39.0792   95.3249 C   0  0  0  0  0  0  0  0  0  0  0  0
   24.8833   39.0410   95.0292 O   0  0  0  0  0  0  0  0  0  0  0  0
   27.7415   40.5728   94.4818 C   0  0  0  0  0  0  0  0  0  0  0  0
   26.2931   31.2155  105.6930 O   0  0  0  0  0  0  0  0  0  0  0  0
   27.5703   39.5228   99.2110 C   0  0  0  0  0  0  0  0  0  0  0  0
   26.3486   38.7487   99.0801 O   0  0  0  0  0  0  0  0  0  0  0  0
   28.6445   38.5885   99.7082 C   0  0  1  0  0  0  0  0  0  0  0  0
   28.2695   38.0808  101.0104 O   0  0  0  0  0  0  0  0  0  0  0  0
   28.9181   37.3609   98.8322 C   0  0  1  0  0  0  0  0  0  0  0  0
   30.3076   37.0410   98.7829 O   0  0  0  0  0  0  0  0  0  0  0  0
   28.1503   36.2513   99.5496 C   0  0  1  0  0  0  0  0  0  0  0  0
   28.7490   34.9738   99.4081 O   0  0  0  0  0  0  0  0  0  0  0  0
   28.3440   36.6672  101.0021 C   0  0  2  0  0  0  0  0  0  0  0  0
   28.3361   33.5650  104.3948 C   0  0  0  0  0  0  0  0  0  0  0  0
   24.2989   38.2737   97.8029 O   0  0  0  0  0  0  0  0  0  0  0  0
   27.0826   33.4028  104.9770 C   0  0  0  0  0  0  0  0  0  0  0  0
   26.8908   32.4326  106.1152 C   0  0  0  0  0  0  0  0  0  0  0  0
   25.1870   40.5759   97.9690 O   0  0  0  0  0  0  0  0  0  0  0  0
   26.0080   34.1416  104.4994 C   0  0  0  0  0  0  0  0  0  0  0  0
   26.4133   39.1077   96.6601 N   0  0  0  0  0  0  0  0  0  0  0  0
   28.7591   40.9885   93.4584 C   0  0  0  0  0  0  0  0  0  0  0  0
   26.1981   35.0387  103.4532 C   0  0  0  0  0  0  0  0  0  0  0  0
   30.0449   40.4635   93.4737 C   0  0  0  0  0  0  0  0  0  0  0  0
   27.4688   35.1908  102.8818 C   0  0  0  0  0  0  0  0  0  0  0  0
   31.0091   40.8988   92.5834 C   0  0  0  0  0  0  0  0  0  0  0  0
   28.5677   34.4490  103.3297 C   0  0  0  0  0  0  0  0  0  0  0  0
   29.8373   34.5032  102.7632 N   0  0  0  0  0  0  0  0  0  0  0  0
   30.6922   41.8763   91.6536 C   0  0  0  0  0  0  0  0  0  0  0  0
   27.3166   36.1424  101.8940 N   0  0  0  0  0  0  0  0  0  0  0  0
   25.9959   36.5026  101.9160 C   0  0  0  0  0  0  0  0  0  0  0  0
   31.6362   42.3419   90.7809 O   0  0  0  0  0  0  0  0  0  0  0  0
   29.4081   42.4001   91.6101 C   0  0  0  0  0  0  0  0  0  0  0  0
   25.2864   35.8760  102.8226 N   0  0  0  0  0  0  0  0  0  0  0  0
   28.4581   41.9529   92.5086 C   0  0  0  0  0  0  0  0  0  0  0  0
   25.3933   39.1751   97.8781 S   0  0  1  0  0  0  0  0  0  0  0  0
  2  1  1  6
  2  3  1  0
  2  5  1  0
  3  4  1  0
  3 22  2  3
  5 23  1  0
  6 19  1  0
  7  8  1  0
  9  7  1  6
 37  8  1  1
  9 10  1  0
  9 11  1  0
 10 15  1  0
 11 12  1  1
 11 13  1  0
 13 14  1  1
 13 15  1  0
 15 31  1  1
 16 18  2  0
 16 28  1  0
 17 37  2  0
 18 19  1  0
 18 21  1  0
 20 37  2  0
 21 24  2  0
 22 37  1  0
 23 25  2  0
 23 36  1  0
 24 26  1  0
 24 35  1  0
 25 27  1  0
 26 28  2  0
 26 31  1  0
 27 30  2  0
 28 29  1  0
 30 33  1  0
 30 34  1  0
 31 32  1  0
 32 35  2  0
 34 36  2  0
M  END
$$$$
