
     RDKit          3D

 31 33  0  0  0  0  0  0  0  0999 V2000
   24.7415   40.2099   99.2576 P   0  0  0  0  0  0  0  0  0  0  0  0
   22.9335   37.8414   99.0232 P   0  0  0  0  0  0  0  0  0  0  0  0
   21.6049   37.4776  101.5251 P   0  0  0  0  0  0  0  0  0  0  0  0
   27.3017   39.9828   99.8241 C   0  0  0  0  0  0  0  0  0  0  0  0
   25.9808   39.4285   99.8662 O   0  0  0  0  0  0  0  0  0  0  0  0
   28.3125   38.8778   99.9915 C   0  0  1  0  0  0  0  0  0  0  0  0
   28.2252   38.3478  101.3327 O   0  0  0  0  0  0  0  0  0  0  0  0
   28.0379   37.6891   99.0903 C   0  0  1  0  0  0  0  0  0  0  0  0
   28.7224   37.8648   97.8514 O   0  0  0  0  0  0  0  0  0  0  0  0
   28.6279   36.5159   99.8502 C   0  0  1  0  0  0  0  0  0  0  0  0
   29.9992   36.4032   99.5492 O   0  0  0  0  0  0  0  0  0  0  0  0
   28.4280   36.9504  101.3050 C   0  0  2  0  0  0  0  0  0  0  0  0
   27.1501   33.3040  104.6806 N   0  0  0  0  0  0  0  0  0  0  0  0
   25.2568   41.1288   98.1864 O   0  0  0  0  0  0  0  0  0  0  0  0
   23.7461   36.5739   98.8721 O   0  0  0  0  0  0  0  0  0  0  0  0
   21.3990   38.5639  102.5602 O   0  0  0  0  0  0  0  0  0  0  0  0
   28.3216   33.6811  104.1580 C   0  0  0  0  0  0  0  0  0  0  0  0
   23.9566   40.7784  100.4014 O   0  0  0  0  0  0  0  0  0  0  0  0
   21.5469   37.9146   98.4192 O   0  0  0  0  0  0  0  0  0  0  0  0
   20.4922   37.2741  100.5093 O   0  0  0  0  0  0  0  0  0  0  0  0
   28.5846   34.6507  103.2851 N   0  0  0  0  0  0  0  0  0  0  0  0
   23.8188   39.1024   98.5331 O   0  0  0  0  0  0  0  0  0  0  0  0
   22.7113   38.1291  100.5751 O   0  0  0  0  0  0  0  0  0  0  0  0
   22.3438   36.2429  101.9800 O   0  0  0  0  0  0  0  0  0  0  0  0
   27.4569   35.2800  102.9248 C   0  0  0  0  0  0  0  0  0  0  0  0
   26.1784   35.0139  103.3753 C   0  0  0  0  0  0  0  0  0  0  0  0
   26.0376   33.9680  104.3112 C   0  0  0  0  0  0  0  0  0  0  0  0
   24.8716   33.6026  104.8531 N   0  0  0  0  0  0  0  0  0  0  0  0
   25.2604   35.8682  102.7763 N   0  0  0  0  0  0  0  0  0  0  0  0
   25.9936   36.6169  101.9891 C   0  0  0  0  0  0  0  0  0  0  0  0
   27.3309   36.3142  102.0305 N   0  0  0  0  0  0  0  0  0  0  0  0
  1  5  1  0
  1 14  1  0
  1 18  2  0
  1 22  1  0
  2 15  1  0
  2 19  2  0
  2 22  1  0
  2 23  1  0
  3 16  1  0
  3 20  1  0
  3 23  1  0
  3 24  2  0
  6  4  1  1
  4  5  1  0
  6  7  1  0
  6  8  1  0
  7 12  1  0
  8  9  1  6
  8 10  1  0
 10 11  1  6
 10 12  1  0
 12 31  1  6
 13 17  2  0
 13 27  1  0
 17 21  1  0
 21 25  2  0
 25 26  1  0
 25 31  1  0
 26 27  2  0
 26 29  1  0
 27 28  1  0
 29 30  2  0
 30 31  1  0
M  END
$$$$
