
     RDKit          3D

 31 33  0  0  0  0  0  0  0  0999 V2000
   25.1792   40.5825   99.8430 P   0  0  0  0  0  0  0  0  0  0  0  0
   23.0755   39.5292  101.6426 P   0  0  0  0  0  0  0  0  0  0  0  0
   20.6036   40.7015  100.5954 P   0  0  0  0  0  0  0  0  0  0  0  0
   27.8016   40.2807  100.1557 C   0  0  0  0  0  0  0  0  0  0  0  0
   26.4972   39.7597   99.7131 O   0  0  0  0  0  0  0  0  0  0  0  0
   28.7348   39.1722  100.3944 C   0  0  1  0  0  0  0  0  0  0  0  0
   28.3336   38.3509  101.5049 O   0  0  0  0  0  0  0  0  0  0  0  0
   29.0438   38.1720   99.2548 C   0  0  1  0  0  0  0  0  0  0  0  0
   30.4278   37.8298   99.2513 O   0  0  0  0  0  0  0  0  0  0  0  0
   28.1588   37.0279   99.7174 C   0  0  1  0  0  0  0  0  0  0  0  0
   28.3382   35.7626   99.1338 O   0  0  0  0  0  0  0  0  0  0  0  0
   28.4406   37.0054  101.2250 C   0  0  2  0  0  0  0  0  0  0  0  0
   27.1485   33.2935  104.7012 N   0  0  0  0  0  0  0  0  0  0  0  0
   24.2636   40.1438   98.7815 O   0  0  0  0  0  0  0  0  0  0  0  0
   22.8628   38.2102  100.9977 O   0  0  0  0  0  0  0  0  0  0  0  0
   20.6947   40.0736   99.2550 O   0  0  0  0  0  0  0  0  0  0  0  0
   28.4345   33.6079  104.2146 C   0  0  0  0  0  0  0  0  0  0  0  0
   25.5064   42.0216   99.9115 O   0  0  0  0  0  0  0  0  0  0  0  0
   23.0516   39.3336  103.0903 O   0  0  0  0  0  0  0  0  0  0  0  0
   20.1489   42.0954  100.4432 O   0  0  0  0  0  0  0  0  0  0  0  0
   28.5813   34.6337  103.2903 N   0  0  0  0  0  0  0  0  0  0  0  0
   24.5304   40.1040  101.2424 O   0  0  0  0  0  0  0  0  0  0  0  0
   22.0626   40.6853  101.2546 O   0  0  0  0  0  0  0  0  0  0  0  0
   19.7108   39.9161  101.4700 O   0  0  0  0  0  0  0  0  0  0  0  0
   27.4618   35.3167  102.8846 C   0  0  0  0  0  0  0  0  0  0  0  0
   26.1583   35.0285  103.3580 C   0  0  0  0  0  0  0  0  0  0  0  0
   25.9865   33.9582  104.3168 C   0  0  0  0  0  0  0  0  0  0  0  0
   24.8224   33.5975  104.8354 N   0  0  0  0  0  0  0  0  0  0  0  0
   25.2319   35.8652  102.7866 N   0  0  0  0  0  0  0  0  0  0  0  0
   25.9801   36.6558  101.9696 C   0  0  0  0  0  0  0  0  0  0  0  0
   27.3311   36.3375  102.0094 N   0  0  0  0  0  0  0  0  0  0  0  0
  1  5  1  0
  1 14  1  0
  1 18  2  0
  1 22  1  0
  2 15  1  0
  2 19  2  0
  2 22  1  0
  2 23  1  0
  3 16  1  0
  3 20  1  0
  3 23  1  0
  3 24  2  0
  6  4  1  6
  4  5  1  0
  6  7  1  0
  6  8  1  0
  7 12  1  0
  8  9  1  1
  8 10  1  0
 10 11  1  6
 10 12  1  0
 12 31  1  1
 13 17  2  0
 13 27  1  0
 17 21  1  0
 21 25  2  0
 25 26  1  0
 25 31  1  0
 26 27  2  0
 26 29  1  0
 27 28  1  0
 29 30  2  0
 30 31  1  0
M  END
$$$$
