
     RDKit          3D

 31 33  0  0  0  0  0  0  0  0999 V2000
   24.6666   39.5933   98.8436 P   0  0  0  0  0  0  0  0  0  0  0  0
   23.3613   36.9254   98.6922 P   0  0  0  0  0  0  0  0  0  0  0  0
   21.2166   38.2528  100.1084 P   0  0  0  0  0  0  0  0  0  0  0  0
   27.1830   39.0034   99.4535 C   0  0  0  0  0  0  0  0  0  0  0  0
   26.0127   39.4706   99.4162 O   0  0  0  0  0  0  0  0  0  0  0  0
   28.5423   38.8813  100.0011 C   0  0  1  0  0  0  0  0  0  0  0  0
   28.3333   38.3551  101.3552 O   0  0  0  0  0  0  0  0  0  0  0  0
   28.9769   37.8443   99.0293 C   0  0  1  0  0  0  0  0  0  0  0  0
   30.2698   38.0557   98.4730 O   0  0  0  0  0  0  0  0  0  0  0  0
   28.7514   36.5064   99.8168 C   0  0  1  0  0  0  0  0  0  0  0  0
   29.8769   35.6405   99.6764 O   0  0  0  0  0  0  0  0  0  0  0  0
   28.5049   36.9015  101.3254 C   0  0  2  0  0  0  0  0  0  0  0  0
   27.1664   33.2927  104.6982 N   0  0  0  0  0  0  0  0  0  0  0  0
   24.4927   40.4999   99.9757 O   0  0  0  0  0  0  0  0  0  0  0  0
   23.9504   36.8127   97.3722 O   0  0  0  0  0  0  0  0  0  0  0  0
   20.3056   39.3723   99.7574 O   0  0  0  0  0  0  0  0  0  0  0  0
   28.3864   33.6380  104.1967 C   0  0  0  0  0  0  0  0  0  0  0  0
   24.9276   40.0952   97.4872 O   0  0  0  0  0  0  0  0  0  0  0  0
   23.6691   35.9822   99.7677 O   0  0  0  0  0  0  0  0  0  0  0  0
   22.1160   38.4771  101.2715 O   0  0  0  0  0  0  0  0  0  0  0  0
   28.6303   34.6134  103.2992 N   0  0  0  0  0  0  0  0  0  0  0  0
   24.5292   38.0575   99.0355 O   0  0  0  0  0  0  0  0  0  0  0  0
   22.2101   37.9793   98.9060 O   0  0  0  0  0  0  0  0  0  0  0  0
   20.4279   37.0186  100.2522 O   0  0  0  0  0  0  0  0  0  0  0  0
   27.4324   35.2963  102.9111 C   0  0  0  0  0  0  0  0  0  0  0  0
   26.1509   35.0369  103.3478 C   0  0  0  0  0  0  0  0  0  0  0  0
   26.0237   33.9919  104.2818 C   0  0  0  0  0  0  0  0  0  0  0  0
   24.8316   33.6624  104.7510 N   0  0  0  0  0  0  0  0  0  0  0  0
   25.2308   35.8906  102.7675 N   0  0  0  0  0  0  0  0  0  0  0  0
   25.9653   36.6256  101.9966 C   0  0  0  0  0  0  0  0  0  0  0  0
   27.3278   36.3117  102.0321 N   0  0  0  0  0  0  0  0  0  0  0  0
  1  5  1  0
  1 14  1  0
  1 18  2  0
  1 22  1  0
  2 15  1  0
  2 19  2  0
  2 22  1  0
  2 23  1  0
  3 16  1  0
  3 20  1  0
  3 23  1  0
  3 24  2  0
  6  4  1  6
  4  5  1  0
  6  7  1  0
  6  8  1  0
  7 12  1  0
  8  9  1  1
  8 10  1  0
 10 11  1  1
 10 12  1  0
 12 31  1  6
 13 17  2  0
 13 27  1  0
 17 21  1  0
 21 25  2  0
 25 26  1  0
 25 31  1  0
 26 27  2  0
 26 29  1  0
 27 28  1  0
 29 30  2  0
 30 31  1  0
M  END
$$$$
