
     RDKit          3D

 35 38  0  0  0  0  0  0  0  0999 V2000
   28.8918   40.5291   93.3244 N   0  0  0  0  0  0  0  0  0  0  0  0
   29.1809   40.6252   94.7631 C   0  0  2  0  0  0  0  0  0  0  0  0
   27.9013   40.3566   95.5511 C   0  0  0  0  0  0  0  0  0  0  0  0
   26.8819   39.9606   94.9839 O   0  0  0  0  0  0  0  0  0  0  0  0
   27.9904   40.6062   96.8562 N   0  0  0  0  0  0  0  0  0  0  0  0
   26.3119   38.9449   97.8668 O   0  0  0  0  0  0  0  0  0  0  0  0
   25.5869   41.2447   97.4208 O   0  0  0  0  0  0  0  0  0  0  0  0
   29.6855   42.0312   95.1019 C   0  0  0  0  0  0  0  0  0  0  0  0
   26.7332   40.3861   97.8673 S   0  0  2  0  0  0  0  0  0  0  0  0
   31.0283   42.3481   94.4406 C   0  0  0  0  0  0  0  0  0  0  0  0
   31.1057   43.3305   93.4595 C   0  0  0  0  0  0  0  0  0  0  0  0
   32.1768   41.6665   94.8348 C   0  0  0  0  0  0  0  0  0  0  0  0
   32.3315   43.6343   92.8736 C   0  0  0  0  0  0  0  0  0  0  0  0
   33.4026   41.9712   94.2499 C   0  0  0  0  0  0  0  0  0  0  0  0
   33.4808   42.9556   93.2709 C   0  0  0  0  0  0  0  0  0  0  0  0
   34.6801   43.2506   92.7003 O   0  0  0  0  0  0  0  0  0  0  0  0
   27.1926   39.8679  100.3379 C   0  0  0  0  0  0  0  0  0  0  0  0
   27.1524   40.7947   99.2495 O   0  0  0  0  0  0  0  0  0  0  0  0
   28.5643   39.2090  100.5122 C   0  0  1  0  0  0  0  0  0  0  0  0
   28.5310   38.3761  101.6858 O   0  0  0  0  0  0  0  0  0  0  0  0
   28.9162   38.2594   99.3646 C   0  0  1  0  0  0  0  0  0  0  0  0
   30.3068   37.9298   99.4055 O   0  0  0  0  0  0  0  0  0  0  0  0
   28.0836   37.0448   99.7707 C   0  0  1  0  0  0  0  0  0  0  0  0
   28.6240   35.8805   99.1408 O   0  0  0  0  0  0  0  0  0  0  0  0
   28.3791   37.0055  101.2717 C   0  0  2  0  0  0  0  0  0  0  0  0
   27.1676   33.3257  104.6802 N   0  0  0  0  0  0  0  0  0  0  0  0
   28.3579   33.6442  104.1997 C   0  0  0  0  0  0  0  0  0  0  0  0
   28.4984   34.6175  103.3150 N   0  0  0  0  0  0  0  0  0  0  0  0
   27.4391   35.3152  102.8771 C   0  0  0  0  0  0  0  0  0  0  0  0
   26.1746   35.0061  103.3626 C   0  0  0  0  0  0  0  0  0  0  0  0
   26.0612   33.9744  104.2894 C   0  0  0  0  0  0  0  0  0  0  0  0
   24.8736   33.6376  104.7842 N   0  0  0  0  0  0  0  0  0  0  0  0
   25.3137   35.8404  102.7920 N   0  0  0  0  0  0  0  0  0  0  0  0
   26.0037   36.6441  101.9876 C   0  0  0  0  0  0  0  0  0  0  0  0
   27.2979   36.3295  102.0274 N   0  0  0  0  0  0  0  0  0  0  0  0
  2  1  1  6
  2  3  1  0
  2  8  1  0
  3  4  1  0
  3  5  2  3
  5  9  1  0
  6  9  2  0
  7  9  2  0
  8 10  1  0
  9 18  1  1
 10 11  2  0
 10 12  1  0
 11 13  1  0
 12 14  2  0
 13 15  2  0
 14 15  1  0
 15 16  1  0
 19 17  1  6
 17 18  1  0
 19 20  1  0
 19 21  1  0
 20 25  1  0
 21 22  1  1
 21 23  1  0
 23 24  1  6
 23 25  1  0
 25 35  1  1
 26 31  2  0
 26 27  1  0
 27 28  2  0
 28 29  1  0
 29 30  2  0
 29 35  1  0
 30 31  1  0
 30 33  1  0
 31 32  1  0
 33 34  2  0
 34 35  1  0
M  END
$$$$
