
     RDKit          3D

 35 38  0  0  0  0  0  0  0  0999 V2000
   27.4074   39.6486   93.3885 N   0  0  0  0  0  0  0  0  0  0  0  0
   27.7826   40.2155   94.7197 C   0  0  2  0  0  0  0  0  0  0  0  0
   26.7509   39.8554   95.7622 C   0  0  0  0  0  0  0  0  0  0  0  0
   25.8339   39.1016   95.4842 O   0  0  0  0  0  0  0  0  0  0  0  0
   27.9374   41.7348   94.6148 C   0  0  0  0  0  0  0  0  0  0  0  0
   29.0980   42.1341   93.7327 C   0  0  0  0  0  0  0  0  0  0  0  0
   30.3758   41.6210   93.9663 C   0  0  0  0  0  0  0  0  0  0  0  0
   28.8936   43.0245   92.6744 C   0  0  0  0  0  0  0  0  0  0  0  0
   31.4399   42.0017   93.1555 C   0  0  0  0  0  0  0  0  0  0  0  0
   29.9589   43.4095   91.8601 C   0  0  0  0  0  0  0  0  0  0  0  0
   31.2342   42.8926   92.1012 C   0  0  0  0  0  0  0  0  0  0  0  0
   32.2599   43.2396   91.3302 O   0  0  0  0  0  0  0  0  0  0  0  0
   25.9427   40.2434   98.3166 P   0  0  0  0  0  0  0  0  0  0  0  0
   24.7462   39.3714   98.0933 O   0  0  0  0  0  0  0  0  0  0  0  0
   25.6914   41.6266   98.8490 O   0  0  0  0  0  0  0  0  0  0  0  0
   26.9257   40.4053   96.9673 N   0  0  0  0  0  0  0  0  0  0  0  0
   28.1013   39.9498   99.8174 C   0  0  0  0  0  0  0  0  0  0  0  0
   26.8297   39.4558   99.4046 O   0  0  0  0  0  0  0  0  0  0  0  0
   29.0383   38.7838  100.1102 C   0  0  1  0  0  0  0  0  0  0  0  0
   28.7846   38.2468  101.4174 O   0  0  0  0  0  0  0  0  0  0  0  0
   28.8888   37.6778   99.0793 C   0  0  1  0  0  0  0  0  0  0  0  0
   30.2040   37.4453   98.5999 O   0  0  0  0  0  0  0  0  0  0  0  0
   28.4383   36.4567   99.8470 C   0  0  1  0  0  0  0  0  0  0  0  0
   29.0905   35.2406   99.5266 O   0  0  0  0  0  0  0  0  0  0  0  0
   28.5044   36.8488  101.3202 C   0  0  2  0  0  0  0  0  0  0  0  0
   27.1376   33.3043  104.6942 N   0  0  0  0  0  0  0  0  0  0  0  0
   28.4926   33.5803  104.2229 C   0  0  0  0  0  0  0  0  0  0  0  0
   28.5122   34.6731  103.2673 N   0  0  0  0  0  0  0  0  0  0  0  0
   27.3768   35.3233  102.8930 C   0  0  0  0  0  0  0  0  0  0  0  0
   26.1386   35.0195  103.3671 C   0  0  0  0  0  0  0  0  0  0  0  0
   26.0137   33.9259  104.3469 C   0  0  0  0  0  0  0  0  0  0  0  0
   24.8387   33.5849  104.8570 N   0  0  0  0  0  0  0  0  0  0  0  0
   25.2900   35.8769  102.7668 N   0  0  0  0  0  0  0  0  0  0  0  0
   26.0268   36.6696  101.9398 C   0  0  0  0  0  0  0  0  0  0  0  0
   27.3258   36.3241  102.0330 N   0  0  0  0  0  0  0  0  0  0  0  0
  2  1  1  6
  2  3  1  0
  2  5  1  0
  3  4  1  0
  3 16  2  3
  5  6  1  0
  6  7  2  0
  6  8  1  0
  7  9  1  0
  8 10  2  0
  9 11  2  0
 10 11  1  0
 11 12  1  0
 13 14  1  0
 13 15  2  0
 13 18  1  0
 13 16  1  0
 19 17  1  6
 17 18  1  0
 19 20  1  0
 19 21  1  0
 20 25  1  0
 21 22  1  1
 21 23  1  0
 23 24  1  1
 23 25  1  0
 25 35  1  6
 26 27  2  0
 26 31  1  0
 27 28  1  0
 28 29  2  0
 29 30  1  0
 29 35  1  0
 30 31  2  0
 30 33  1  0
 31 32  1  0
 33 34  2  0
 34 35  1  0
M  END
$$$$
